<nodes>   
<node id="node1" x="1000.0" y="0.0" type="priority"/>   
<node id="node2" x="2000.0" y="0.0" type="priority"/>   
<node id="node3" x="0.0" y="1000.0" type="priority"/>   
<node id="node4" x="1000.0" y="1000.0" type="priority"/>   
<node id="node5" x="2000.0" y="1000.0" type="priority"/>   
<node id="node6" x="3000.0" y="1000.0" type="priority"/>   
<node id="node7" x="0.0" y="2000.0" type="priority"/>   
<node id="node8" x="1000.0" y="2000.0" type="priority"/>   
<node id="node9" x="2000.0" y="2000.0" type="priority"/>   
<node id="node10" x="3000.0" y="2000.0" type="priority"/>   
<node id="node11" x="1000.0" y="3000.0" type="priority"/>   
<node id="node12" x="2000.0" y="3000.0" type="priority"/>   
</nodes>
