<?xml version="1.0" encoding="UTF-8"?>

<!-- generated on Sun Mar 12 16:50:20 2017 by SUMO duarouter Version 0.19.0
<?xml version="1.0" encoding="UTF-8"?>

<configuration xmlns:xsi="http://www.w3.org/2001/XMLSchema-instance" xsi:noNamespaceSchemaLocation="http://sumo-sim.org/xsd/duarouterConfiguration.xsd">

    <input>
        <net-file value="MySUMONet.net.xml"/>
        <flow-files value="ex_FLOW.flow.xml"/>
    </input>

    <output>
        <output-file value="ex_ROU.rou.xml"/>
    </output>

</configuration>
-->

<routes xmlns:xsi="http://www.w3.org/2001/XMLSchema-instance" xsi:noNamespaceSchemaLocation="http://sumo-sim.org/xsd/routes_file.xsd">
    <vehicle id="flow0.0" depart="0.00">
        <route edges="edge-11-8 edge-8-4 edge-4-5 edge-5-2"/>
    </vehicle>
    <vehicle id="flow1.0" depart="0.00">
        <route edges="edge-2-5 edge-5-9 edge-9-8 edge-8-11"/>
    </vehicle>
    <vehicle id="flow2.0" depart="0.00">
        <route edges="edge-12-9 edge-9-5 edge-5-4 edge-4-1"/>
    </vehicle>
    <vehicle id="flow3.0" depart="0.00">
        <route edges="edge-1-4 edge-4-8 edge-8-9 edge-9-12"/>
    </vehicle>
    <vehicle id="flow4.0" depart="0.00">
        <route edges="edge-10-9 edge-9-8 edge-8-4 edge-4-3"/>
    </vehicle>
    <vehicle id="flow5.0" depart="0.00">
        <route edges="edge-3-4 edge-4-5 edge-5-9 edge-9-10"/>
    </vehicle>
    <vehicle id="flow6.0" depart="0.00">
        <route edges="edge-6-5 edge-5-4 edge-4-8 edge-8-7"/>
    </vehicle>
    <vehicle id="flow7.0" depart="0.00">
        <route edges="edge-7-8 edge-8-9 edge-9-5 edge-5-6"/>
    </vehicle>
    <vehicle id="flow0.1" depart="10.00">
        <route edges="edge-11-8 edge-8-4 edge-4-5 edge-5-2"/>
    </vehicle>
    <vehicle id="flow1.1" depart="10.00">
        <route edges="edge-2-5 edge-5-9 edge-9-8 edge-8-11"/>
    </vehicle>
    <vehicle id="flow2.1" depart="10.00">
        <route edges="edge-12-9 edge-9-5 edge-5-4 edge-4-1"/>
    </vehicle>
    <vehicle id="flow3.1" depart="10.00">
        <route edges="edge-1-4 edge-4-8 edge-8-9 edge-9-12"/>
    </vehicle>
    <vehicle id="flow4.1" depart="10.00">
        <route edges="edge-10-9 edge-9-8 edge-8-4 edge-4-3"/>
    </vehicle>
    <vehicle id="flow5.1" depart="10.00">
        <route edges="edge-3-4 edge-4-5 edge-5-9 edge-9-10"/>
    </vehicle>
    <vehicle id="flow6.1" depart="10.00">
        <route edges="edge-6-5 edge-5-4 edge-4-8 edge-8-7"/>
    </vehicle>
    <vehicle id="flow7.1" depart="10.00">
        <route edges="edge-7-8 edge-8-9 edge-9-5 edge-5-6"/>
    </vehicle>
    <vehicle id="flow0.2" depart="20.00">
        <route edges="edge-11-8 edge-8-4 edge-4-5 edge-5-2"/>
    </vehicle>
    <vehicle id="flow1.2" depart="20.00">
        <route edges="edge-2-5 edge-5-9 edge-9-8 edge-8-11"/>
    </vehicle>
    <vehicle id="flow2.2" depart="20.00">
        <route edges="edge-12-9 edge-9-5 edge-5-4 edge-4-1"/>
    </vehicle>
    <vehicle id="flow3.2" depart="20.00">
        <route edges="edge-1-4 edge-4-8 edge-8-9 edge-9-12"/>
    </vehicle>
    <vehicle id="flow4.2" depart="20.00">
        <route edges="edge-10-9 edge-9-8 edge-8-4 edge-4-3"/>
    </vehicle>
    <vehicle id="flow5.2" depart="20.00">
        <route edges="edge-3-4 edge-4-5 edge-5-9 edge-9-10"/>
    </vehicle>
    <vehicle id="flow6.2" depart="20.00">
        <route edges="edge-6-5 edge-5-4 edge-4-8 edge-8-7"/>
    </vehicle>
    <vehicle id="flow7.2" depart="20.00">
        <route edges="edge-7-8 edge-8-9 edge-9-5 edge-5-6"/>
    </vehicle>
    <vehicle id="flow0.3" depart="30.00">
        <route edges="edge-11-8 edge-8-4 edge-4-5 edge-5-2"/>
    </vehicle>
    <vehicle id="flow1.3" depart="30.00">
        <route edges="edge-2-5 edge-5-9 edge-9-8 edge-8-11"/>
    </vehicle>
    <vehicle id="flow2.3" depart="30.00">
        <route edges="edge-12-9 edge-9-5 edge-5-4 edge-4-1"/>
    </vehicle>
    <vehicle id="flow3.3" depart="30.00">
        <route edges="edge-1-4 edge-4-8 edge-8-9 edge-9-12"/>
    </vehicle>
    <vehicle id="flow4.3" depart="30.00">
        <route edges="edge-10-9 edge-9-8 edge-8-4 edge-4-3"/>
    </vehicle>
    <vehicle id="flow5.3" depart="30.00">
        <route edges="edge-3-4 edge-4-5 edge-5-9 edge-9-10"/>
    </vehicle>
    <vehicle id="flow6.3" depart="30.00">
        <route edges="edge-6-5 edge-5-4 edge-4-8 edge-8-7"/>
    </vehicle>
    <vehicle id="flow7.3" depart="30.00">
        <route edges="edge-7-8 edge-8-9 edge-9-5 edge-5-6"/>
    </vehicle>
    <vehicle id="flow0.4" depart="40.00">
        <route edges="edge-11-8 edge-8-4 edge-4-5 edge-5-2"/>
    </vehicle>
    <vehicle id="flow1.4" depart="40.00">
        <route edges="edge-2-5 edge-5-9 edge-9-8 edge-8-11"/>
    </vehicle>
    <vehicle id="flow2.4" depart="40.00">
        <route edges="edge-12-9 edge-9-5 edge-5-4 edge-4-1"/>
    </vehicle>
    <vehicle id="flow3.4" depart="40.00">
        <route edges="edge-1-4 edge-4-8 edge-8-9 edge-9-12"/>
    </vehicle>
    <vehicle id="flow4.4" depart="40.00">
        <route edges="edge-10-9 edge-9-8 edge-8-4 edge-4-3"/>
    </vehicle>
    <vehicle id="flow5.4" depart="40.00">
        <route edges="edge-3-4 edge-4-5 edge-5-9 edge-9-10"/>
    </vehicle>
    <vehicle id="flow6.4" depart="40.00">
        <route edges="edge-6-5 edge-5-4 edge-4-8 edge-8-7"/>
    </vehicle>
    <vehicle id="flow7.4" depart="40.00">
        <route edges="edge-7-8 edge-8-9 edge-9-5 edge-5-6"/>
    </vehicle>
    <vehicle id="flow0.5" depart="50.00">
        <route edges="edge-11-8 edge-8-4 edge-4-5 edge-5-2"/>
    </vehicle>
    <vehicle id="flow1.5" depart="50.00">
        <route edges="edge-2-5 edge-5-9 edge-9-8 edge-8-11"/>
    </vehicle>
    <vehicle id="flow2.5" depart="50.00">
        <route edges="edge-12-9 edge-9-5 edge-5-4 edge-4-1"/>
    </vehicle>
    <vehicle id="flow3.5" depart="50.00">
        <route edges="edge-1-4 edge-4-8 edge-8-9 edge-9-12"/>
    </vehicle>
    <vehicle id="flow4.5" depart="50.00">
        <route edges="edge-10-9 edge-9-8 edge-8-4 edge-4-3"/>
    </vehicle>
    <vehicle id="flow5.5" depart="50.00">
        <route edges="edge-3-4 edge-4-5 edge-5-9 edge-9-10"/>
    </vehicle>
    <vehicle id="flow6.5" depart="50.00">
        <route edges="edge-6-5 edge-5-4 edge-4-8 edge-8-7"/>
    </vehicle>
    <vehicle id="flow7.5" depart="50.00">
        <route edges="edge-7-8 edge-8-9 edge-9-5 edge-5-6"/>
    </vehicle>
    <vehicle id="flow0.6" depart="60.00">
        <route edges="edge-11-8 edge-8-4 edge-4-5 edge-5-2"/>
    </vehicle>
    <vehicle id="flow1.6" depart="60.00">
        <route edges="edge-2-5 edge-5-9 edge-9-8 edge-8-11"/>
    </vehicle>
    <vehicle id="flow2.6" depart="60.00">
        <route edges="edge-12-9 edge-9-5 edge-5-4 edge-4-1"/>
    </vehicle>
    <vehicle id="flow3.6" depart="60.00">
        <route edges="edge-1-4 edge-4-8 edge-8-9 edge-9-12"/>
    </vehicle>
    <vehicle id="flow4.6" depart="60.00">
        <route edges="edge-10-9 edge-9-8 edge-8-4 edge-4-3"/>
    </vehicle>
    <vehicle id="flow5.6" depart="60.00">
        <route edges="edge-3-4 edge-4-5 edge-5-9 edge-9-10"/>
    </vehicle>
    <vehicle id="flow6.6" depart="60.00">
        <route edges="edge-6-5 edge-5-4 edge-4-8 edge-8-7"/>
    </vehicle>
    <vehicle id="flow7.6" depart="60.00">
        <route edges="edge-7-8 edge-8-9 edge-9-5 edge-5-6"/>
    </vehicle>
    <vehicle id="flow0.7" depart="70.00">
        <route edges="edge-11-8 edge-8-4 edge-4-5 edge-5-2"/>
    </vehicle>
    <vehicle id="flow1.7" depart="70.00">
        <route edges="edge-2-5 edge-5-9 edge-9-8 edge-8-11"/>
    </vehicle>
    <vehicle id="flow2.7" depart="70.00">
        <route edges="edge-12-9 edge-9-5 edge-5-4 edge-4-1"/>
    </vehicle>
    <vehicle id="flow3.7" depart="70.00">
        <route edges="edge-1-4 edge-4-8 edge-8-9 edge-9-12"/>
    </vehicle>
    <vehicle id="flow4.7" depart="70.00">
        <route edges="edge-10-9 edge-9-8 edge-8-4 edge-4-3"/>
    </vehicle>
    <vehicle id="flow5.7" depart="70.00">
        <route edges="edge-3-4 edge-4-5 edge-5-9 edge-9-10"/>
    </vehicle>
    <vehicle id="flow6.7" depart="70.00">
        <route edges="edge-6-5 edge-5-4 edge-4-8 edge-8-7"/>
    </vehicle>
    <vehicle id="flow7.7" depart="70.00">
        <route edges="edge-7-8 edge-8-9 edge-9-5 edge-5-6"/>
    </vehicle>
    <vehicle id="flow0.8" depart="80.00">
        <route edges="edge-11-8 edge-8-4 edge-4-5 edge-5-2"/>
    </vehicle>
    <vehicle id="flow1.8" depart="80.00">
        <route edges="edge-2-5 edge-5-9 edge-9-8 edge-8-11"/>
    </vehicle>
    <vehicle id="flow2.8" depart="80.00">
        <route edges="edge-12-9 edge-9-5 edge-5-4 edge-4-1"/>
    </vehicle>
    <vehicle id="flow3.8" depart="80.00">
        <route edges="edge-1-4 edge-4-8 edge-8-9 edge-9-12"/>
    </vehicle>
    <vehicle id="flow4.8" depart="80.00">
        <route edges="edge-10-9 edge-9-8 edge-8-4 edge-4-3"/>
    </vehicle>
    <vehicle id="flow5.8" depart="80.00">
        <route edges="edge-3-4 edge-4-5 edge-5-9 edge-9-10"/>
    </vehicle>
    <vehicle id="flow6.8" depart="80.00">
        <route edges="edge-6-5 edge-5-4 edge-4-8 edge-8-7"/>
    </vehicle>
    <vehicle id="flow7.8" depart="80.00">
        <route edges="edge-7-8 edge-8-9 edge-9-5 edge-5-6"/>
    </vehicle>
    <vehicle id="flow0.9" depart="90.00">
        <route edges="edge-11-8 edge-8-4 edge-4-5 edge-5-2"/>
    </vehicle>
    <vehicle id="flow1.9" depart="90.00">
        <route edges="edge-2-5 edge-5-9 edge-9-8 edge-8-11"/>
    </vehicle>
    <vehicle id="flow2.9" depart="90.00">
        <route edges="edge-12-9 edge-9-5 edge-5-4 edge-4-1"/>
    </vehicle>
    <vehicle id="flow3.9" depart="90.00">
        <route edges="edge-1-4 edge-4-8 edge-8-9 edge-9-12"/>
    </vehicle>
    <vehicle id="flow4.9" depart="90.00">
        <route edges="edge-10-9 edge-9-8 edge-8-4 edge-4-3"/>
    </vehicle>
    <vehicle id="flow5.9" depart="90.00">
        <route edges="edge-3-4 edge-4-5 edge-5-9 edge-9-10"/>
    </vehicle>
    <vehicle id="flow6.9" depart="90.00">
        <route edges="edge-6-5 edge-5-4 edge-4-8 edge-8-7"/>
    </vehicle>
    <vehicle id="flow7.9" depart="90.00">
        <route edges="edge-7-8 edge-8-9 edge-9-5 edge-5-6"/>
    </vehicle>
    <vehicle id="flow0.10" depart="100.00">
        <route edges="edge-11-8 edge-8-4 edge-4-5 edge-5-2"/>
    </vehicle>
    <vehicle id="flow1.10" depart="100.00">
        <route edges="edge-2-5 edge-5-9 edge-9-8 edge-8-11"/>
    </vehicle>
    <vehicle id="flow2.10" depart="100.00">
        <route edges="edge-12-9 edge-9-5 edge-5-4 edge-4-1"/>
    </vehicle>
    <vehicle id="flow3.10" depart="100.00">
        <route edges="edge-1-4 edge-4-8 edge-8-9 edge-9-12"/>
    </vehicle>
    <vehicle id="flow4.10" depart="100.00">
        <route edges="edge-10-9 edge-9-8 edge-8-4 edge-4-3"/>
    </vehicle>
    <vehicle id="flow5.10" depart="100.00">
        <route edges="edge-3-4 edge-4-5 edge-5-9 edge-9-10"/>
    </vehicle>
    <vehicle id="flow6.10" depart="100.00">
        <route edges="edge-6-5 edge-5-4 edge-4-8 edge-8-7"/>
    </vehicle>
    <vehicle id="flow7.10" depart="100.00">
        <route edges="edge-7-8 edge-8-9 edge-9-5 edge-5-6"/>
    </vehicle>
    <vehicle id="flow0.11" depart="110.00">
        <route edges="edge-11-8 edge-8-4 edge-4-5 edge-5-2"/>
    </vehicle>
    <vehicle id="flow1.11" depart="110.00">
        <route edges="edge-2-5 edge-5-9 edge-9-8 edge-8-11"/>
    </vehicle>
    <vehicle id="flow2.11" depart="110.00">
        <route edges="edge-12-9 edge-9-5 edge-5-4 edge-4-1"/>
    </vehicle>
    <vehicle id="flow3.11" depart="110.00">
        <route edges="edge-1-4 edge-4-8 edge-8-9 edge-9-12"/>
    </vehicle>
    <vehicle id="flow4.11" depart="110.00">
        <route edges="edge-10-9 edge-9-8 edge-8-4 edge-4-3"/>
    </vehicle>
    <vehicle id="flow5.11" depart="110.00">
        <route edges="edge-3-4 edge-4-5 edge-5-9 edge-9-10"/>
    </vehicle>
    <vehicle id="flow6.11" depart="110.00">
        <route edges="edge-6-5 edge-5-4 edge-4-8 edge-8-7"/>
    </vehicle>
    <vehicle id="flow7.11" depart="110.00">
        <route edges="edge-7-8 edge-8-9 edge-9-5 edge-5-6"/>
    </vehicle>
    <vehicle id="flow0.12" depart="120.00">
        <route edges="edge-11-8 edge-8-4 edge-4-5 edge-5-2"/>
    </vehicle>
    <vehicle id="flow1.12" depart="120.00">
        <route edges="edge-2-5 edge-5-9 edge-9-8 edge-8-11"/>
    </vehicle>
    <vehicle id="flow2.12" depart="120.00">
        <route edges="edge-12-9 edge-9-5 edge-5-4 edge-4-1"/>
    </vehicle>
    <vehicle id="flow3.12" depart="120.00">
        <route edges="edge-1-4 edge-4-8 edge-8-9 edge-9-12"/>
    </vehicle>
    <vehicle id="flow4.12" depart="120.00">
        <route edges="edge-10-9 edge-9-8 edge-8-4 edge-4-3"/>
    </vehicle>
    <vehicle id="flow5.12" depart="120.00">
        <route edges="edge-3-4 edge-4-5 edge-5-9 edge-9-10"/>
    </vehicle>
    <vehicle id="flow6.12" depart="120.00">
        <route edges="edge-6-5 edge-5-4 edge-4-8 edge-8-7"/>
    </vehicle>
    <vehicle id="flow7.12" depart="120.00">
        <route edges="edge-7-8 edge-8-9 edge-9-5 edge-5-6"/>
    </vehicle>
    <vehicle id="flow0.13" depart="130.00">
        <route edges="edge-11-8 edge-8-4 edge-4-5 edge-5-2"/>
    </vehicle>
    <vehicle id="flow1.13" depart="130.00">
        <route edges="edge-2-5 edge-5-9 edge-9-8 edge-8-11"/>
    </vehicle>
    <vehicle id="flow2.13" depart="130.00">
        <route edges="edge-12-9 edge-9-5 edge-5-4 edge-4-1"/>
    </vehicle>
    <vehicle id="flow3.13" depart="130.00">
        <route edges="edge-1-4 edge-4-8 edge-8-9 edge-9-12"/>
    </vehicle>
    <vehicle id="flow4.13" depart="130.00">
        <route edges="edge-10-9 edge-9-8 edge-8-4 edge-4-3"/>
    </vehicle>
    <vehicle id="flow5.13" depart="130.00">
        <route edges="edge-3-4 edge-4-5 edge-5-9 edge-9-10"/>
    </vehicle>
    <vehicle id="flow6.13" depart="130.00">
        <route edges="edge-6-5 edge-5-4 edge-4-8 edge-8-7"/>
    </vehicle>
    <vehicle id="flow7.13" depart="130.00">
        <route edges="edge-7-8 edge-8-9 edge-9-5 edge-5-6"/>
    </vehicle>
    <vehicle id="flow0.14" depart="140.00">
        <route edges="edge-11-8 edge-8-4 edge-4-5 edge-5-2"/>
    </vehicle>
    <vehicle id="flow1.14" depart="140.00">
        <route edges="edge-2-5 edge-5-9 edge-9-8 edge-8-11"/>
    </vehicle>
    <vehicle id="flow2.14" depart="140.00">
        <route edges="edge-12-9 edge-9-5 edge-5-4 edge-4-1"/>
    </vehicle>
    <vehicle id="flow3.14" depart="140.00">
        <route edges="edge-1-4 edge-4-8 edge-8-9 edge-9-12"/>
    </vehicle>
    <vehicle id="flow4.14" depart="140.00">
        <route edges="edge-10-9 edge-9-8 edge-8-4 edge-4-3"/>
    </vehicle>
    <vehicle id="flow5.14" depart="140.00">
        <route edges="edge-3-4 edge-4-5 edge-5-9 edge-9-10"/>
    </vehicle>
    <vehicle id="flow6.14" depart="140.00">
        <route edges="edge-6-5 edge-5-4 edge-4-8 edge-8-7"/>
    </vehicle>
    <vehicle id="flow7.14" depart="140.00">
        <route edges="edge-7-8 edge-8-9 edge-9-5 edge-5-6"/>
    </vehicle>
    <vehicle id="flow0.15" depart="150.00">
        <route edges="edge-11-8 edge-8-4 edge-4-5 edge-5-2"/>
    </vehicle>
    <vehicle id="flow1.15" depart="150.00">
        <route edges="edge-2-5 edge-5-9 edge-9-8 edge-8-11"/>
    </vehicle>
    <vehicle id="flow2.15" depart="150.00">
        <route edges="edge-12-9 edge-9-5 edge-5-4 edge-4-1"/>
    </vehicle>
    <vehicle id="flow3.15" depart="150.00">
        <route edges="edge-1-4 edge-4-8 edge-8-9 edge-9-12"/>
    </vehicle>
    <vehicle id="flow4.15" depart="150.00">
        <route edges="edge-10-9 edge-9-8 edge-8-4 edge-4-3"/>
    </vehicle>
    <vehicle id="flow5.15" depart="150.00">
        <route edges="edge-3-4 edge-4-5 edge-5-9 edge-9-10"/>
    </vehicle>
    <vehicle id="flow6.15" depart="150.00">
        <route edges="edge-6-5 edge-5-4 edge-4-8 edge-8-7"/>
    </vehicle>
    <vehicle id="flow7.15" depart="150.00">
        <route edges="edge-7-8 edge-8-9 edge-9-5 edge-5-6"/>
    </vehicle>
    <vehicle id="flow0.16" depart="160.00">
        <route edges="edge-11-8 edge-8-4 edge-4-5 edge-5-2"/>
    </vehicle>
    <vehicle id="flow1.16" depart="160.00">
        <route edges="edge-2-5 edge-5-9 edge-9-8 edge-8-11"/>
    </vehicle>
    <vehicle id="flow2.16" depart="160.00">
        <route edges="edge-12-9 edge-9-5 edge-5-4 edge-4-1"/>
    </vehicle>
    <vehicle id="flow3.16" depart="160.00">
        <route edges="edge-1-4 edge-4-8 edge-8-9 edge-9-12"/>
    </vehicle>
    <vehicle id="flow4.16" depart="160.00">
        <route edges="edge-10-9 edge-9-8 edge-8-4 edge-4-3"/>
    </vehicle>
    <vehicle id="flow5.16" depart="160.00">
        <route edges="edge-3-4 edge-4-5 edge-5-9 edge-9-10"/>
    </vehicle>
    <vehicle id="flow6.16" depart="160.00">
        <route edges="edge-6-5 edge-5-4 edge-4-8 edge-8-7"/>
    </vehicle>
    <vehicle id="flow7.16" depart="160.00">
        <route edges="edge-7-8 edge-8-9 edge-9-5 edge-5-6"/>
    </vehicle>
    <vehicle id="flow0.17" depart="170.00">
        <route edges="edge-11-8 edge-8-4 edge-4-5 edge-5-2"/>
    </vehicle>
    <vehicle id="flow1.17" depart="170.00">
        <route edges="edge-2-5 edge-5-9 edge-9-8 edge-8-11"/>
    </vehicle>
    <vehicle id="flow2.17" depart="170.00">
        <route edges="edge-12-9 edge-9-5 edge-5-4 edge-4-1"/>
    </vehicle>
    <vehicle id="flow3.17" depart="170.00">
        <route edges="edge-1-4 edge-4-8 edge-8-9 edge-9-12"/>
    </vehicle>
    <vehicle id="flow4.17" depart="170.00">
        <route edges="edge-10-9 edge-9-8 edge-8-4 edge-4-3"/>
    </vehicle>
    <vehicle id="flow5.17" depart="170.00">
        <route edges="edge-3-4 edge-4-5 edge-5-9 edge-9-10"/>
    </vehicle>
    <vehicle id="flow6.17" depart="170.00">
        <route edges="edge-6-5 edge-5-4 edge-4-8 edge-8-7"/>
    </vehicle>
    <vehicle id="flow7.17" depart="170.00">
        <route edges="edge-7-8 edge-8-9 edge-9-5 edge-5-6"/>
    </vehicle>
    <vehicle id="flow0.18" depart="180.00">
        <route edges="edge-11-8 edge-8-4 edge-4-5 edge-5-2"/>
    </vehicle>
    <vehicle id="flow1.18" depart="180.00">
        <route edges="edge-2-5 edge-5-9 edge-9-8 edge-8-11"/>
    </vehicle>
    <vehicle id="flow2.18" depart="180.00">
        <route edges="edge-12-9 edge-9-5 edge-5-4 edge-4-1"/>
    </vehicle>
    <vehicle id="flow3.18" depart="180.00">
        <route edges="edge-1-4 edge-4-8 edge-8-9 edge-9-12"/>
    </vehicle>
    <vehicle id="flow4.18" depart="180.00">
        <route edges="edge-10-9 edge-9-8 edge-8-4 edge-4-3"/>
    </vehicle>
    <vehicle id="flow5.18" depart="180.00">
        <route edges="edge-3-4 edge-4-5 edge-5-9 edge-9-10"/>
    </vehicle>
    <vehicle id="flow6.18" depart="180.00">
        <route edges="edge-6-5 edge-5-4 edge-4-8 edge-8-7"/>
    </vehicle>
    <vehicle id="flow7.18" depart="180.00">
        <route edges="edge-7-8 edge-8-9 edge-9-5 edge-5-6"/>
    </vehicle>
    <vehicle id="flow0.19" depart="190.00">
        <route edges="edge-11-8 edge-8-4 edge-4-5 edge-5-2"/>
    </vehicle>
    <vehicle id="flow1.19" depart="190.00">
        <route edges="edge-2-5 edge-5-9 edge-9-8 edge-8-11"/>
    </vehicle>
    <vehicle id="flow2.19" depart="190.00">
        <route edges="edge-12-9 edge-9-5 edge-5-4 edge-4-1"/>
    </vehicle>
    <vehicle id="flow3.19" depart="190.00">
        <route edges="edge-1-4 edge-4-8 edge-8-9 edge-9-12"/>
    </vehicle>
    <vehicle id="flow4.19" depart="190.00">
        <route edges="edge-10-9 edge-9-8 edge-8-4 edge-4-3"/>
    </vehicle>
    <vehicle id="flow5.19" depart="190.00">
        <route edges="edge-3-4 edge-4-5 edge-5-9 edge-9-10"/>
    </vehicle>
    <vehicle id="flow6.19" depart="190.00">
        <route edges="edge-6-5 edge-5-4 edge-4-8 edge-8-7"/>
    </vehicle>
    <vehicle id="flow7.19" depart="190.00">
        <route edges="edge-7-8 edge-8-9 edge-9-5 edge-5-6"/>
    </vehicle>
    <vehicle id="flow0.20" depart="200.00">
        <route edges="edge-11-8 edge-8-4 edge-4-5 edge-5-2"/>
    </vehicle>
    <vehicle id="flow1.20" depart="200.00">
        <route edges="edge-2-5 edge-5-9 edge-9-8 edge-8-11"/>
    </vehicle>
    <vehicle id="flow2.20" depart="200.00">
        <route edges="edge-12-9 edge-9-5 edge-5-4 edge-4-1"/>
    </vehicle>
    <vehicle id="flow3.20" depart="200.00">
        <route edges="edge-1-4 edge-4-8 edge-8-9 edge-9-12"/>
    </vehicle>
    <vehicle id="flow4.20" depart="200.00">
        <route edges="edge-10-9 edge-9-8 edge-8-4 edge-4-3"/>
    </vehicle>
    <vehicle id="flow5.20" depart="200.00">
        <route edges="edge-3-4 edge-4-5 edge-5-9 edge-9-10"/>
    </vehicle>
    <vehicle id="flow6.20" depart="200.00">
        <route edges="edge-6-5 edge-5-4 edge-4-8 edge-8-7"/>
    </vehicle>
    <vehicle id="flow7.20" depart="200.00">
        <route edges="edge-7-8 edge-8-9 edge-9-5 edge-5-6"/>
    </vehicle>
    <vehicle id="flow0.21" depart="210.00">
        <route edges="edge-11-8 edge-8-4 edge-4-5 edge-5-2"/>
    </vehicle>
    <vehicle id="flow1.21" depart="210.00">
        <route edges="edge-2-5 edge-5-9 edge-9-8 edge-8-11"/>
    </vehicle>
    <vehicle id="flow2.21" depart="210.00">
        <route edges="edge-12-9 edge-9-5 edge-5-4 edge-4-1"/>
    </vehicle>
    <vehicle id="flow3.21" depart="210.00">
        <route edges="edge-1-4 edge-4-8 edge-8-9 edge-9-12"/>
    </vehicle>
    <vehicle id="flow4.21" depart="210.00">
        <route edges="edge-10-9 edge-9-8 edge-8-4 edge-4-3"/>
    </vehicle>
    <vehicle id="flow5.21" depart="210.00">
        <route edges="edge-3-4 edge-4-5 edge-5-9 edge-9-10"/>
    </vehicle>
    <vehicle id="flow6.21" depart="210.00">
        <route edges="edge-6-5 edge-5-4 edge-4-8 edge-8-7"/>
    </vehicle>
    <vehicle id="flow7.21" depart="210.00">
        <route edges="edge-7-8 edge-8-9 edge-9-5 edge-5-6"/>
    </vehicle>
    <vehicle id="flow0.22" depart="220.00">
        <route edges="edge-11-8 edge-8-4 edge-4-5 edge-5-2"/>
    </vehicle>
    <vehicle id="flow1.22" depart="220.00">
        <route edges="edge-2-5 edge-5-9 edge-9-8 edge-8-11"/>
    </vehicle>
    <vehicle id="flow2.22" depart="220.00">
        <route edges="edge-12-9 edge-9-5 edge-5-4 edge-4-1"/>
    </vehicle>
    <vehicle id="flow3.22" depart="220.00">
        <route edges="edge-1-4 edge-4-8 edge-8-9 edge-9-12"/>
    </vehicle>
    <vehicle id="flow4.22" depart="220.00">
        <route edges="edge-10-9 edge-9-8 edge-8-4 edge-4-3"/>
    </vehicle>
    <vehicle id="flow5.22" depart="220.00">
        <route edges="edge-3-4 edge-4-5 edge-5-9 edge-9-10"/>
    </vehicle>
    <vehicle id="flow6.22" depart="220.00">
        <route edges="edge-6-5 edge-5-4 edge-4-8 edge-8-7"/>
    </vehicle>
    <vehicle id="flow7.22" depart="220.00">
        <route edges="edge-7-8 edge-8-9 edge-9-5 edge-5-6"/>
    </vehicle>
    <vehicle id="flow0.23" depart="230.00">
        <route edges="edge-11-8 edge-8-4 edge-4-5 edge-5-2"/>
    </vehicle>
    <vehicle id="flow1.23" depart="230.00">
        <route edges="edge-2-5 edge-5-9 edge-9-8 edge-8-11"/>
    </vehicle>
    <vehicle id="flow2.23" depart="230.00">
        <route edges="edge-12-9 edge-9-5 edge-5-4 edge-4-1"/>
    </vehicle>
    <vehicle id="flow3.23" depart="230.00">
        <route edges="edge-1-4 edge-4-8 edge-8-9 edge-9-12"/>
    </vehicle>
    <vehicle id="flow4.23" depart="230.00">
        <route edges="edge-10-9 edge-9-8 edge-8-4 edge-4-3"/>
    </vehicle>
    <vehicle id="flow5.23" depart="230.00">
        <route edges="edge-3-4 edge-4-5 edge-5-9 edge-9-10"/>
    </vehicle>
    <vehicle id="flow6.23" depart="230.00">
        <route edges="edge-6-5 edge-5-4 edge-4-8 edge-8-7"/>
    </vehicle>
    <vehicle id="flow7.23" depart="230.00">
        <route edges="edge-7-8 edge-8-9 edge-9-5 edge-5-6"/>
    </vehicle>
    <vehicle id="flow0.24" depart="240.00">
        <route edges="edge-11-8 edge-8-4 edge-4-5 edge-5-2"/>
    </vehicle>
    <vehicle id="flow1.24" depart="240.00">
        <route edges="edge-2-5 edge-5-9 edge-9-8 edge-8-11"/>
    </vehicle>
    <vehicle id="flow2.24" depart="240.00">
        <route edges="edge-12-9 edge-9-5 edge-5-4 edge-4-1"/>
    </vehicle>
    <vehicle id="flow3.24" depart="240.00">
        <route edges="edge-1-4 edge-4-8 edge-8-9 edge-9-12"/>
    </vehicle>
    <vehicle id="flow4.24" depart="240.00">
        <route edges="edge-10-9 edge-9-8 edge-8-4 edge-4-3"/>
    </vehicle>
    <vehicle id="flow5.24" depart="240.00">
        <route edges="edge-3-4 edge-4-5 edge-5-9 edge-9-10"/>
    </vehicle>
    <vehicle id="flow6.24" depart="240.00">
        <route edges="edge-6-5 edge-5-4 edge-4-8 edge-8-7"/>
    </vehicle>
    <vehicle id="flow7.24" depart="240.00">
        <route edges="edge-7-8 edge-8-9 edge-9-5 edge-5-6"/>
    </vehicle>
    <vehicle id="flow0.25" depart="250.00">
        <route edges="edge-11-8 edge-8-4 edge-4-5 edge-5-2"/>
    </vehicle>
    <vehicle id="flow1.25" depart="250.00">
        <route edges="edge-2-5 edge-5-9 edge-9-8 edge-8-11"/>
    </vehicle>
    <vehicle id="flow2.25" depart="250.00">
        <route edges="edge-12-9 edge-9-5 edge-5-4 edge-4-1"/>
    </vehicle>
    <vehicle id="flow3.25" depart="250.00">
        <route edges="edge-1-4 edge-4-8 edge-8-9 edge-9-12"/>
    </vehicle>
    <vehicle id="flow4.25" depart="250.00">
        <route edges="edge-10-9 edge-9-8 edge-8-4 edge-4-3"/>
    </vehicle>
    <vehicle id="flow5.25" depart="250.00">
        <route edges="edge-3-4 edge-4-5 edge-5-9 edge-9-10"/>
    </vehicle>
    <vehicle id="flow6.25" depart="250.00">
        <route edges="edge-6-5 edge-5-4 edge-4-8 edge-8-7"/>
    </vehicle>
    <vehicle id="flow7.25" depart="250.00">
        <route edges="edge-7-8 edge-8-9 edge-9-5 edge-5-6"/>
    </vehicle>
    <vehicle id="flow0.26" depart="260.00">
        <route edges="edge-11-8 edge-8-4 edge-4-5 edge-5-2"/>
    </vehicle>
    <vehicle id="flow1.26" depart="260.00">
        <route edges="edge-2-5 edge-5-9 edge-9-8 edge-8-11"/>
    </vehicle>
    <vehicle id="flow2.26" depart="260.00">
        <route edges="edge-12-9 edge-9-5 edge-5-4 edge-4-1"/>
    </vehicle>
    <vehicle id="flow3.26" depart="260.00">
        <route edges="edge-1-4 edge-4-8 edge-8-9 edge-9-12"/>
    </vehicle>
    <vehicle id="flow4.26" depart="260.00">
        <route edges="edge-10-9 edge-9-8 edge-8-4 edge-4-3"/>
    </vehicle>
    <vehicle id="flow5.26" depart="260.00">
        <route edges="edge-3-4 edge-4-5 edge-5-9 edge-9-10"/>
    </vehicle>
    <vehicle id="flow6.26" depart="260.00">
        <route edges="edge-6-5 edge-5-4 edge-4-8 edge-8-7"/>
    </vehicle>
    <vehicle id="flow7.26" depart="260.00">
        <route edges="edge-7-8 edge-8-9 edge-9-5 edge-5-6"/>
    </vehicle>
    <vehicle id="flow0.27" depart="270.00">
        <route edges="edge-11-8 edge-8-4 edge-4-5 edge-5-2"/>
    </vehicle>
    <vehicle id="flow1.27" depart="270.00">
        <route edges="edge-2-5 edge-5-9 edge-9-8 edge-8-11"/>
    </vehicle>
    <vehicle id="flow2.27" depart="270.00">
        <route edges="edge-12-9 edge-9-5 edge-5-4 edge-4-1"/>
    </vehicle>
    <vehicle id="flow3.27" depart="270.00">
        <route edges="edge-1-4 edge-4-8 edge-8-9 edge-9-12"/>
    </vehicle>
    <vehicle id="flow4.27" depart="270.00">
        <route edges="edge-10-9 edge-9-8 edge-8-4 edge-4-3"/>
    </vehicle>
    <vehicle id="flow5.27" depart="270.00">
        <route edges="edge-3-4 edge-4-5 edge-5-9 edge-9-10"/>
    </vehicle>
    <vehicle id="flow6.27" depart="270.00">
        <route edges="edge-6-5 edge-5-4 edge-4-8 edge-8-7"/>
    </vehicle>
    <vehicle id="flow7.27" depart="270.00">
        <route edges="edge-7-8 edge-8-9 edge-9-5 edge-5-6"/>
    </vehicle>
    <vehicle id="flow0.28" depart="280.00">
        <route edges="edge-11-8 edge-8-4 edge-4-5 edge-5-2"/>
    </vehicle>
    <vehicle id="flow1.28" depart="280.00">
        <route edges="edge-2-5 edge-5-9 edge-9-8 edge-8-11"/>
    </vehicle>
    <vehicle id="flow2.28" depart="280.00">
        <route edges="edge-12-9 edge-9-5 edge-5-4 edge-4-1"/>
    </vehicle>
    <vehicle id="flow3.28" depart="280.00">
        <route edges="edge-1-4 edge-4-8 edge-8-9 edge-9-12"/>
    </vehicle>
    <vehicle id="flow4.28" depart="280.00">
        <route edges="edge-10-9 edge-9-8 edge-8-4 edge-4-3"/>
    </vehicle>
    <vehicle id="flow5.28" depart="280.00">
        <route edges="edge-3-4 edge-4-5 edge-5-9 edge-9-10"/>
    </vehicle>
    <vehicle id="flow6.28" depart="280.00">
        <route edges="edge-6-5 edge-5-4 edge-4-8 edge-8-7"/>
    </vehicle>
    <vehicle id="flow7.28" depart="280.00">
        <route edges="edge-7-8 edge-8-9 edge-9-5 edge-5-6"/>
    </vehicle>
    <vehicle id="flow0.29" depart="290.00">
        <route edges="edge-11-8 edge-8-4 edge-4-5 edge-5-2"/>
    </vehicle>
    <vehicle id="flow1.29" depart="290.00">
        <route edges="edge-2-5 edge-5-9 edge-9-8 edge-8-11"/>
    </vehicle>
    <vehicle id="flow2.29" depart="290.00">
        <route edges="edge-12-9 edge-9-5 edge-5-4 edge-4-1"/>
    </vehicle>
    <vehicle id="flow3.29" depart="290.00">
        <route edges="edge-1-4 edge-4-8 edge-8-9 edge-9-12"/>
    </vehicle>
    <vehicle id="flow4.29" depart="290.00">
        <route edges="edge-10-9 edge-9-8 edge-8-4 edge-4-3"/>
    </vehicle>
    <vehicle id="flow5.29" depart="290.00">
        <route edges="edge-3-4 edge-4-5 edge-5-9 edge-9-10"/>
    </vehicle>
    <vehicle id="flow6.29" depart="290.00">
        <route edges="edge-6-5 edge-5-4 edge-4-8 edge-8-7"/>
    </vehicle>
    <vehicle id="flow7.29" depart="290.00">
        <route edges="edge-7-8 edge-8-9 edge-9-5 edge-5-6"/>
    </vehicle>
    <vehicle id="flow0.30" depart="300.00">
        <route edges="edge-11-8 edge-8-4 edge-4-5 edge-5-2"/>
    </vehicle>
    <vehicle id="flow1.30" depart="300.00">
        <route edges="edge-2-5 edge-5-9 edge-9-8 edge-8-11"/>
    </vehicle>
    <vehicle id="flow2.30" depart="300.00">
        <route edges="edge-12-9 edge-9-5 edge-5-4 edge-4-1"/>
    </vehicle>
    <vehicle id="flow3.30" depart="300.00">
        <route edges="edge-1-4 edge-4-8 edge-8-9 edge-9-12"/>
    </vehicle>
    <vehicle id="flow4.30" depart="300.00">