<?xml version="1.0" encoding="UTF-8"?>

<!-- generated on Thu Mar 16 21:35:59 2017 by SUMO duarouter Version 0.19.0
<?xml version="1.0" encoding="UTF-8"?>

<configuration xmlns:xsi="http://www.w3.org/2001/XMLSchema-instance" xsi:noNamespaceSchemaLocation="http://sumo-sim.org/xsd/duarouterConfiguration.xsd">

    <input>
        <net-file value="input.net.xml"/>
        <flow-files value="input.flow.xml"/>
    </input>

    <output>
        <output-file value="input.rou.xml"/>
    </output>

    <processing>
        <randomize-flows value="true"/>
    </processing>

    <random_number>
        <random value="true"/>
    </random_number>

</configuration>
-->

<routes xmlns:xsi="http://www.w3.org/2001/XMLSchema-instance" xsi:noNamespaceSchemaLocation="http://sumo-sim.org/xsd/routes_file.xsd">
    <vehicle id="flow0.0" depart="3.05">
        <route edges="edge-11-8 edge-8-4 edge-4-5 edge-5-2"/>
    </vehicle>
    <vehicle id="flow0.1" depart="7.72">
        <route edges="edge-11-8 edge-8-4 edge-4-5 edge-5-2"/>
    </vehicle>
    <vehicle id="flow0.2" depart="30.62">
        <route edges="edge-11-8 edge-8-4 edge-4-5 edge-5-2"/>
    </vehicle>
    <vehicle id="flow0.3" depart="34.50">
        <route edges="edge-11-8 edge-8-4 edge-4-5 edge-5-2"/>
    </vehicle>
    <vehicle id="flow0.4" depart="36.55">
        <route edges="edge-11-8 edge-8-4 edge-4-5 edge-5-2"/>
    </vehicle>
    <vehicle id="flow0.5" depart="37.50">
        <route edges="edge-11-8 edge-8-4 edge-4-5 edge-5-2"/>
    </vehicle>
    <vehicle id="flow0.6" depart="40.02">
        <route edges="edge-11-8 edge-8-4 edge-4-5 edge-5-2"/>
    </vehicle>
    <vehicle id="flow0.7" depart="41.21">
        <route edges="edge-11-8 edge-8-4 edge-4-5 edge-5-2"/>
    </vehicle>
    <vehicle id="flow0.8" depart="41.41">
        <route edges="edge-11-8 edge-8-4 edge-4-5 edge-5-2"/>
    </vehicle>
    <vehicle id="flow0.9" depart="42.84">
        <route edges="edge-11-8 edge-8-4 edge-4-5 edge-5-2"/>
    </vehicle>
    <vehicle id="flow0.10" depart="47.49">
        <route edges="edge-11-8 edge-8-4 edge-4-5 edge-5-2"/>
    </vehicle>
    <vehicle id="flow0.11" depart="51.97">
        <route edges="edge-11-8 edge-8-4 edge-4-5 edge-5-2"/>
    </vehicle>
    <vehicle id="flow0.12" depart="64.47">
        <route edges="edge-11-8 edge-8-4 edge-4-5 edge-5-2"/>
    </vehicle>
    <vehicle id="flow0.13" depart="66.53">
        <route edges="edge-11-8 edge-8-4 edge-4-5 edge-5-2"/>
    </vehicle>
    <vehicle id="flow0.14" depart="80.25">
        <route edges="edge-11-8 edge-8-4 edge-4-5 edge-5-2"/>
    </vehicle>
    <vehicle id="flow0.15" depart="96.06">
        <route edges="edge-11-8 edge-8-4 edge-4-5 edge-5-2"/>
    </vehicle>
    <vehicle id="flow0.16" depart="97.03">
        <route edges="edge-11-8 edge-8-4 edge-4-5 edge-5-2"/>
    </vehicle>
    <vehicle id="flow0.17" depart="100.28">
        <route edges="edge-11-8 edge-8-4 edge-4-5 edge-5-2"/>
    </vehicle>
    <vehicle id="flow0.18" depart="104.50">
        <route edges="edge-11-8 edge-8-4 edge-4-5 edge-5-2"/>
    </vehicle>
    <vehicle id="flow0.19" depart="109.82">
        <route edges="edge-11-8 edge-8-4 edge-4-5 edge-5-2"/>
    </vehicle>
    <vehicle id="flow0.20" depart="110.79">
        <route edges="edge-11-8 edge-8-4 edge-4-5 edge-5-2"/>
    </vehicle>
    <vehicle id="flow0.21" depart="116.02">
        <route edges="edge-11-8 edge-8-4 edge-4-5 edge-5-2"/>
    </vehicle>
    <vehicle id="flow0.22" depart="119.31">
        <route edges="edge-11-8 edge-8-4 edge-4-5 edge-5-2"/>
    </vehicle>
    <vehicle id="flow0.23" depart="129.48">
        <route edges="edge-11-8 edge-8-4 edge-4-5 edge-5-2"/>
    </vehicle>
    <vehicle id="flow0.24" depart="130.89">
        <route edges="edge-11-8 edge-8-4 edge-4-5 edge-5-2"/>
    </vehicle>
    <vehicle id="flow0.25" depart="146.28">
        <route edges="edge-11-8 edge-8-4 edge-4-5 edge-5-2"/>
    </vehicle>
    <vehicle id="flow0.26" depart="157.96">
        <route edges="edge-11-8 edge-8-4 edge-4-5 edge-5-2"/>
    </vehicle>
    <vehicle id="flow0.27" depart="161.36">
        <route edges="edge-11-8 edge-8-4 edge-4-5 edge-5-2"/>
    </vehicle>
    <vehicle id="flow0.28" depart="166.66">
        <route edges="edge-11-8 edge-8-4 edge-4-5 edge-5-2"/>
    </vehicle>
    <vehicle id="flow0.29" depart="167.10">
        <route edges="edge-11-8 edge-8-4 edge-4-5 edge-5-2"/>
    </vehicle>
    <vehicle id="flow0.30" depart="169.12">
        <route edges="edge-11-8 edge-8-4 edge-4-5 edge-5-2"/>
    </vehicle>
    <vehicle id="flow0.31" depart="176.49">
        <route edges="edge-11-8 edge-8-4 edge-4-5 edge-5-2"/>
    </vehicle>
    <vehicle id="flow0.32" depart="184.56">
        <route edges="edge-11-8 edge-8-4 edge-4-5 edge-5-2"/>
    </vehicle>
    <vehicle id="flow0.33" depart="187.93">
        <route edges="edge-11-8 edge-8-4 edge-4-5 edge-5-2"/>
    </vehicle>
    <vehicle id="flow0.34" depart="204.37">
        <route edges="edge-11-8 edge-8-4 edge-4-5 edge-5-2"/>
    </vehicle>
    <vehicle id="flow0.35" depart="207.48">
        <route edges="edge-11-8 edge-8-4 edge-4-5 edge-5-2"/>
    </vehicle>
    <vehicle id="flow0.36" depart="209.91">
        <route edges="edge-11-8 edge-8-4 edge-4-5 edge-5-2"/>
    </vehicle>
    <vehicle id="flow0.37" depart="212.99">
        <route edges="edge-11-8 edge-8-4 edge-4-5 edge-5-2"/>
    </vehicle>
    <vehicle id="flow0.38" depart="216.44">
        <route edges="edge-11-8 edge-8-4 edge-4-5 edge-5-2"/>
    </vehicle>
    <vehicle id="flow0.39" depart="218.51">
        <route edges="edge-11-8 edge-8-4 edge-4-5 edge-5-2"/>
    </vehicle>
    <vehicle id="flow0.40" depart="224.42">
        <route edges="edge-11-8 edge-8-4 edge-4-5 edge-5-2"/>
    </vehicle>
    <vehicle id="flow0.41" depart="225.54">
        <route edges="edge-11-8 edge-8-4 edge-4-5 edge-5-2"/>
    </vehicle>
    <vehicle id="flow0.42" depart="226.72">
        <route edges="edge-11-8 edge-8-4 edge-4-5 edge-5-2"/>
    </vehicle>
    <vehicle id="flow0.43" depart="237.74">
        <route edges="edge-11-8 edge-8-4 edge-4-5 edge-5-2"/>
    </vehicle>
    <vehicle id="flow0.44" depart="239.09">
        <route edges="edge-11-8 edge-8-4 edge-4-5 edge-5-2"/>
    </vehicle>
    <vehicle id="flow0.45" depart="246.35">
        <route edges="edge-11-8 edge-8-4 edge-4-5 edge-5-2"/>
    </vehicle>
    <vehicle id="flow0.46" depart="253.99">
        <route edges="edge-11-8 edge-8-4 edge-4-5 edge-5-2"/>
    </vehicle>
    <vehicle id="flow0.47" depart="254.75">
        <route edges="edge-11-8 edge-8-4 edge-4-5 edge-5-2"/>
    </vehicle>
    <vehicle id="flow0.48" depart="262.08">
        <route edges="edge-11-8 edge-8-4 edge-4-5 edge-5-2"/>
    </vehicle>
    <vehicle id="flow0.49" depart="268.42">
        <route edges="edge-11-8 edge-8-4 edge-4-5 edge-5-2"/>
    </vehicle>
    <vehicle id="flow0.50" depart="272.32">
        <route edges="edge-11-8 edge-8-4 edge-4-5 edge-5-2"/>
    </vehicle>
    <vehicle id="flow0.51" depart="272.34">
        <route edges="edge-11-8 edge-8-4 edge-4-5 edge-5-2"/>
    </vehicle>
    <vehicle id="flow0.52" depart="282.10">
        <route edges="edge-11-8 edge-8-4 edge-4-5 edge-5-2"/>
    </vehicle>
    <vehicle id="flow0.53" depart="283.79">
        <route edges="edge-11-8 edge-8-4 edge-4-5 edge-5-2"/>
    </vehicle>
    <vehicle id="flow0.54" depart="284.04">
        <route edges="edge-11-8 edge-8-4 edge-4-5 edge-5-2"/>
    </vehicle>
    <vehicle id="flow0.55" depart="289.82">
        <route edges="edge-11-8 edge-8-4 edge-4-5 edge-5-2"/>
    </vehicle>
    <vehicle id="flow0.56" depart="296.25">
        <route edges="edge-11-8 edge-8-4 edge-4-5 edge-5-2"/>
    </vehicle>
    <vehicle id="flow0.57" depart="296.74">
        <route edges="edge-11-8 edge-8-4 edge-4-5 edge-5-2"/>
    </vehicle>
    <vehicle id="flow0.58" depart="306.17">
        <route edges="edge-11-8 edge-8-4 edge-4-5 edge-5-2"/>
    </vehicle>
    <vehicle id="flow0.59" depart="318.97">
        <route edges="edge-11-8 edge-8-4 edge-4-5 edge-5-2"/>
    </vehicle>
    <vehicle id="flow0.60" depart="319.39">
        <route edges="edge-11-8 edge-8-4 edge-4-5 edge-5-2"/>
    </vehicle>
    <vehicle id="flow0.61" depart="319.55">
        <route edges="edge-11-8 edge-8-4 edge-4-5 edge-5-2"/>
    </vehicle>
    <vehicle id="flow0.62" depart="328.62">
        <route edges="edge-11-8 edge-8-4 edge-4-5 edge-5-2"/>
    </vehicle>
    <vehicle id="flow0.63" depart="330.04">
        <route edges="edge-11-8 edge-8-4 edge-4-5 edge-5-2"/>
    </vehicle>
    <vehicle id="flow0.64" depart="333.05">
        <route edges="edge-11-8 edge-8-4 edge-4-5 edge-5-2"/>
    </vehicle>
    <vehicle id="flow0.65" depart="339.63">
        <route edges="edge-11-8 edge-8-4 edge-4-5 edge-5-2"/>
    </vehicle>
    <vehicle id="flow0.66" depart="341.17">
        <route edges="edge-11-8 edge-8-4 edge-4-5 edge-5-2"/>
    </vehicle>
    <vehicle id="flow0.67" depart="347.41">
        <route edges="edge-11-8 edge-8-4 edge-4-5 edge-5-2"/>
    </vehicle>
    <vehicle id="flow0.68" depart="359.06">
        <route edges="edge-11-8 edge-8-4 edge-4-5 edge-5-2"/>
    </vehicle>
    <vehicle id="flow0.69" depart="361.74">
        <route edges="edge-11-8 edge-8-4 edge-4-5 edge-5-2"/>
    </vehicle>
    <vehicle id="flow0.70" depart="362.08">
        <route edges="edge-11-8 edge-8-4 edge-4-5 edge-5-2"/>
    </vehicle>
    <vehicle id="flow0.71" depart="372.14">
        <route edges="edge-11-8 edge-8-4 edge-4-5 edge-5-2"/>
    </vehicle>
    <vehicle id="flow0.72" depart="373.68">
        <route edges="edge-11-8 edge-8-4 edge-4-5 edge-5-2"/>
    </vehicle>
    <vehicle id="flow0.73" depart="374.49">
        <route edges="edge-11-8 edge-8-4 edge-4-5 edge-5-2"/>
    </vehicle>
    <vehicle id="flow0.74" depart="374.56">
        <route edges="edge-11-8 edge-8-4 edge-4-5 edge-5-2"/>
    </vehicle>
    <vehicle id="flow0.75" depart="379.95">
        <route edges="edge-11-8 edge-8-4 edge-4-5 edge-5-2"/>
    </vehicle>
    <vehicle id="flow0.76" depart="380.91">
        <route edges="edge-11-8 edge-8-4 edge-4-5 edge-5-2"/>
    </vehicle>
    <vehicle id="flow0.77" depart="381.29">
        <route edges="edge-11-8 edge-8-4 edge-4-5 edge-5-2"/>
    </vehicle>
    <vehicle id="flow0.78" depart="383.53">
        <route edges="edge-11-8 edge-8-4 edge-4-5 edge-5-2"/>
    </vehicle>
    <vehicle id="flow0.79" depart="391.80">
        <route edges="edge-11-8 edge-8-4 edge-4-5 edge-5-2"/>
    </vehicle>
    <vehicle id="flow0.80" depart="395.28">
        <route edges="edge-11-8 edge-8-4 edge-4-5 edge-5-2"/>
    </vehicle>
    <vehicle id="flow0.81" depart="397.14">
        <route edges="edge-11-8 edge-8-4 edge-4-5 edge-5-2"/>
    </vehicle>
    <vehicle id="flow0.82" depart="402.45">
        <route edges="edge-11-8 edge-8-4 edge-4-5 edge-5-2"/>
    </vehicle>
    <vehicle id="flow0.83" depart="415.76">
        <route edges="edge-11-8 edge-8-4 edge-4-5 edge-5-2"/>
    </vehicle>
    <vehicle id="flow0.84" depart="419.31">
        <route edges="edge-11-8 edge-8-4 edge-4-5 edge-5-2"/>
    </vehicle>
    <vehicle id="flow0.85" depart="425.15">
        <route edges="edge-11-8 edge-8-4 edge-4-5 edge-5-2"/>
    </vehicle>
    <vehicle id="flow0.86" depart="429.08">
        <route edges="edge-11-8 edge-8-4 edge-4-5 edge-5-2"/>
    </vehicle>
    <vehicle id="flow0.87" depart="440.82">
        <route edges="edge-11-8 edge-8-4 edge-4-5 edge-5-2"/>
    </vehicle>
    <vehicle id="flow0.88" depart="440.89">
        <route edges="edge-11-8 edge-8-4 edge-4-5 edge-5-2"/>
    </vehicle>
    <vehicle id="flow0.89" depart="451.32">
        <route edges="edge-11-8 edge-8-4 edge-4-5 edge-5-2"/>
    </vehicle>
    <vehicle id="flow0.90" depart="458.61">
        <route edges="edge-11-8 edge-8-4 edge-4-5 edge-5-2"/>
    </vehicle>
    <vehicle id="flow0.91" depart="471.17">
        <route edges="edge-11-8 edge-8-4 edge-4-5 edge-5-2"/>
    </vehicle>
    <vehicle id="flow0.92" depart="477.98">
        <route edges="edge-11-8 edge-8-4 edge-4-5 edge-5-2"/>
    </vehicle>
    <vehicle id="flow0.93" depart="478.19">
        <route edges="edge-11-8 edge-8-4 edge-4-5 edge-5-2"/>
    </vehicle>
    <vehicle id="flow0.94" depart="481.34">
        <route edges="edge-11-8 edge-8-4 edge-4-5 edge-5-2"/>
    </vehicle>
    <vehicle id="flow0.95" depart="484.69">
        <route edges="edge-11-8 edge-8-4 edge-4-5 edge-5-2"/>
    </vehicle>
    <vehicle id="flow0.96" depart="487.87">
        <route edges="edge-11-8 edge-8-4 edge-4-5 edge-5-2"/>
    </vehicle>
    <vehicle id="flow0.97" depart="489.31">
        <route edges="edge-11-8 edge-8-4 edge-4-5 edge-5-2"/>
    </vehicle>
    <vehicle id="flow0.98" depart="495.74">
        <route edges="edge-11-8 edge-8-4 edge-4-5 edge-5-2"/>
    </vehicle>
    <vehicle id="flow0.99" depart="497.81">
        <route edges="edge-11-8 edge-8-4 edge-4-5 edge-5-2"/>
    </vehicle>
    <vehicle id="flow0.100" depart="501.12">
        <route edges="edge-11-8 edge-8-4 edge-4-5 edge-5-2"/>
    </vehicle>
    <vehicle id="flow0.101" depart="502.04">
        <route edges="edge-11-8 edge-8-4 edge-4-5 edge-5-2"/>
    </vehicle>
    <vehicle id="flow0.102" depart="507.85">
        <route edges="edge-11-8 edge-8-4 edge-4-5 edge-5-2"/>
    </vehicle>
    <vehicle id="flow0.103" depart="508.42">
        <route edges="edge-11-8 edge-8-4 edge-4-5 edge-5-2"/>
    </vehicle>
    <vehicle id="flow0.104" depart="510.38">
        <route edges="edge-11-8 edge-8-4 edge-4-5 edge-5-2"/>
    </vehicle>
    <vehicle id="flow0.105" depart="512.54">
        <route edges="edge-11-8 edge-8-4 edge-4-5 edge-5-2"/>
    </vehicle>
    <vehicle id="flow0.106" depart="513.11">
        <route edges="edge-11-8 edge-8-4 edge-4-5 edge-5-2"/>
    </vehicle>
    <vehicle id="flow0.107" depart="524.18">
        <route edges="edge-11-8 edge-8-4 edge-4-5 edge-5-2"/>
    </vehicle>
    <vehicle id="flow0.108" depart="527.94">
        <route edges="edge-11-8 edge-8-4 edge-4-5 edge-5-2"/>
    </vehicle>
    <vehicle id="flow0.109" depart="545.18">
        <route edges="edge-11-8 edge-8-4 edge-4-5 edge-5-2"/>
    </vehicle>
    <vehicle id="flow0.110" depart="555.71">
        <route edges="edge-11-8 edge-8-4 edge-4-5 edge-5-2"/>
    </vehicle>
    <vehicle id="flow0.111" depart="560.61">
        <route edges="edge-11-8 edge-8-4 edge-4-5 edge-5-2"/>
    </vehicle>
    <vehicle id="flow0.112" depart="561.49">
        <route edges="edge-11-8 edge-8-4 edge-4-5 edge-5-2"/>
    </vehicle>
    <vehicle id="flow0.113" depart="566.89">
        <route edges="edge-11-8 edge-8-4 edge-4-5 edge-5-2"/>
    </vehicle>
    <vehicle id="flow0.114" depart="570.81">
        <route edges="edge-11-8 edge-8-4 edge-4-5 edge-5-2"/>
    </vehicle>
    <vehicle id="flow0.115" depart="574.05">
        <route edges="edge-11-8 edge-8-4 edge-4-5 edge-5-2"/>
    </vehicle>
    <vehicle id="flow0.116" depart="582.43">
        <route edges="edge-11-8 edge-8-4 edge-4-5 edge-5-2"/>
    </vehicle>
    <vehicle id="flow0.117" depart="582.54">
        <route edges="edge-11-8 edge-8-4 edge-4-5 edge-5-2"/>
    </vehicle>
    <vehicle id="flow0.118" depart="597.72">
        <route edges="edge-11-8 edge-8-4 edge-4-5 edge-5-2"/>
    </vehicle>
    <vehicle id="flow0.119" depart="603.51">
        <route edges="edge-11-8 edge-8-4 edge-4-5 edge-5-2"/>
    </vehicle>
    <vehicle id="flow0.120" depart="606.96">
        <route edges="edge-11-8 edge-8-4 edge-4-5 edge-5-2"/>
    </vehicle>
    <vehicle id="flow0.121" depart="610.48">
        <route edges="edge-11-8 edge-8-4 edge-4-5 edge-5-2"/>
    </vehicle>
    <vehicle id="flow0.122" depart="615.36">
        <route edges="edge-11-8 edge-8-4 edge-4-5 edge-5-2"/>
    </vehicle>
    <vehicle id="flow0.123" depart="626.36">
        <route edges="edge-11-8 edge-8-4 edge-4-5 edge-5-2"/>
    </vehicle>
    <vehicle id="flow0.124" depart="627.90">
        <route edges="edge-11-8 edge-8-4 edge-4-5 edge-5-2"/>
    </vehicle>
    <vehicle id="flow0.125" depart="635.70">
        <route edges="edge-11-8 edge-8-4 edge-4-5 edge-5-2"/>
    </vehicle>
    <vehicle id="flow0.126" depart="640.65">
        <route edges="edge-11-8 edge-8-4 edge-4-5 edge-5-2"/>
    </vehicle>
    <vehicle id="flow0.127" depart="643.65">
        <route edges="edge-11-8 edge-8-4 edge-4-5 edge-5-2"/>
    </vehicle>
    <vehicle id="flow0.128" depart="644.81">
        <route edges="edge-11-8 edge-8-4 edge-4-5 edge-5-2"/>
    </vehicle>
    <vehicle id="flow0.129" depart="663.55">
        <route edges="edge-11-8 edge-8-4 edge-4-5 edge-5-2"/>
    </vehicle>
    <vehicle id="flow0.130" depart="667.46">
        <route edges="edge-11-8 edge-8-4 edge-4-5 edge-5-2"/>
    </vehicle>
    <vehicle id="flow0.131" depart="669.59">
        <route edges="edge-11-8 edge-8-4 edge-4-5 edge-5-2"/>
    </vehicle>
    <vehicle id="flow0.132" depart="677.98">
        <route edges="edge-11-8 edge-8-4 edge-4-5 edge-5-2"/>
    </vehicle>
    <vehicle id="flow0.133" depart="683.23">
        <route edges="edge-11-8 edge-8-4 edge-4-5 edge-5-2"/>
    </vehicle>
    <vehicle id="flow0.134" depart="688.42">
        <route edges="edge-11-8 edge-8-4 edge-4-5 edge-5-2"/>
    </vehicle>
    <vehicle id="flow0.135" depart="691.81">
        <route edges="edge-11-8 edge-8-4 edge-4-5 edge-5-2"/>
    </vehicle>
    <vehicle id="flow0.136" depart="700.78">
        <route edges="edge-11-8 edge-8-4 edge-4-5 edge-5-2"/>
    </vehicle>
    <vehicle id="flow0.137" depart="703.96">
        <route edges="edge-11-8 edge-8-4 edge-4-5 edge-5-2"/>
    </vehicle>
    <vehicle id="flow0.138" depart="711.87">
        <route edges="edge-11-8 edge-8-4 edge-4-5 edge-5-2"/>
    </vehicle>
    <vehicle id="flow0.139" depart="716.42">
        <route edges="edge-11-8 edge-8-4 edge-4-5 edge-5-2"/>
    </vehicle>
    <vehicle id="flow0.140" depart="726.38">
        <route edges="edge-11-8 edge-8-4 edge-4-5 edge-5-2"/>
    </vehicle>
    <vehicle id="flow0.141" depart="726.68">
        <route edges="edge-11-8 edge-8-4 edge-4-5 edge-5-2"/>
    </vehicle>
    <vehicle id="flow0.142" depart="735.45">
        <route edges="edge-11-8 edge-8-4 edge-4-5 edge-5-2"/>
    </vehicle>
    <vehicle id="flow0.143" depart="735.84">
        <route edges="edge-11-8 edge-8-4 edge-4-5 edge-5-2"/>
    </vehicle>
    <vehicle id="flow0.144" depart="738.11">
        <route edges="edge-11-8 edge-8-4 edge-4-5 edge-5-2"/>
    </vehicle>
    <vehicle id="flow0.145" depart="747.28">
        <route edges="edge-11-8 edge-8-4 edge-4-5 edge-5-2"/>
    </vehicle>
    <vehicle id="flow0.146" depart="750.32">
        <route edges="edge-11-8 edge-8-4 edge-4-5 edge-5-2"/>
    </vehicle>
    <vehicle id="flow0.147" depart="754.87">
        <route edges="edge-11-8 edge-8-4 edge-4-5 edge-5-2"/>
    </vehicle>
    <vehicle id="flow0.148" depart="762.42">
        <route edges="edge-11-8 edge-8-4 edge-4-5 edge-5-2"/>
    </vehicle>
    <vehicle id="flow0.149" depart="764.52">
        <route edges="edge-11-8 edge-8-4 edge-4-5 edge-5-2"/>
    </vehicle>
    <vehicle id="flow0.150" depart="772.38">
        <route edges="edge-11-8 edge-8-4 edge-4-5 edge-5-2"/>
    </vehicle>
    <vehicle id="flow0.151" depart="776.25">
        <route edges="edge-11-8 edge-8-4 edge-4-5 edge-5-2"/>
    </vehicle>
    <vehicle id="flow0.152" depart="781.07">
        <route edges="edge-11-8 edge-8-4 edge-4-5 edge-5-2"/>
    </vehicle>
    <vehicle id="flow0.153" depart="784.53">
        <route edges="edge-11-8 edge-8-4 edge-4-5 edge-5-2"/>
    </vehicle>
    <vehicle id="flow0.154" depart="798.57">
        <route edges="edge-11-8 edge-8-4 edge-4-5 edge-5-2"/>
    </vehicle>
    <vehicle id="flow0.155" depart="806.44">
        <route edges="edge-11-8 edge-8-4 edge-4-5 edge-5-2"/>
    </vehicle>
    <vehicle id="flow0.156" depart="811.08">
        <route edges="edge-11-8 edge-8-4 edge-4-5 edge-5-2"/>
    </vehicle>
    <vehicle id="flow0.157" depart="811.08">
        <route edges="edge-11-8 edge-8-4 edge-4-5 edge-5-2"/>
    </vehicle>
    <vehicle id="flow0.158" depart="813.16">
        <route edges="edge-11-8 edge-8-4 edge-4-5 edge-5-2"/>
    </vehicle>
    <vehicle id="flow0.159" depart="815.37">
        <route edges="edge-11-8 edge-8-4 edge-4-5 edge-5-2"/>
    </vehicle>
    <vehicle id="flow0.160" depart="815.38">
        <route edges="edge-11-8 edge-8-4 edge-4-5 edge-5-2"/>
    </vehicle>
    <vehicle id="flow0.161" depart="818.54">
        <route edges="edge-11-8 edge-8-4 edge-4-5 edge-5-2"/>
    </vehicle>
    <vehicle id="flow0.162" depart="820.09">
        <route edges="edge-11-8 edge-8-4 edge-4-5 edge-5-2"/>
    </vehicle>
    <vehicle id="flow0.163" depart="821.25">
        <route edges="edge-11-8 edge-8-4 edge-4-5 edge-5-2"/>
    </vehicle>
    <vehicle id="flow0.164" depart="825.14">
        <route edges="edge-11-8 edge-8-4 edge-4-5 edge-5-2"/>
    </vehicle>
    <vehicle id="flow0.165" depart="827.72">
        <route edges="edge-11-8 edge-8-4 edge-4-5 edge-5-2"/>
    </vehicle>
    <vehicle id="flow0.166" depart="831.69">
        <route edges="edge-11-8 edge-8-4 edge-4-5 edge-5-2"/>
    </vehicle>
    <vehicle id="flow0.167" depart="844.93">
        <route edges="edge-11-8 edge-8-4 edge-4-5 edge-5-2"/>
    </vehicle>
    <vehicle id="flow0.168" depart="854.74">
        <route edges="edge-11-8 edge-8-4 edge-4-5 edge-5-2"/>
    </vehicle>
    <vehicle id="flow0.169" depart="855.86">
        <route edges="edge-11-8 edge-8-4 edge-4-5 edge-5-2"/>
    </vehicle>
    <vehicle id="flow0.170" depart="860.39">
        <route edges="edge-11-8 edge-8-4 edge-4-5 edge-5-2"/>
    </vehicle>
    <vehicle id="flow0.171" depart="869.31">
        <route edges="edge-11-8 edge-8-4 edge-4-5 edge-5-2"/>
    </vehicle>
    <vehicle id="flow0.172" depart="870.95">
        <route edges="edge-11-8 edge-8-4 edge-4-5 edge-5-2"/>
    </vehicle>
    <vehicle id="flow0.173" depart="873.65">
        <route edges="edge-11-8 edge-8-4 edge-4-5 edge-5-2"/>
    </vehicle>
    <vehicle id="flow0.174" depart="875.23">
        <route edges="edge-11-8 edge-8-4 edge-4-5 edge-5-2"/>
    </vehicle>
    <vehicle id="flow0.175" depart="890.99">
        <route edges="edge-11-8 edge-8-4 edge-4-5 edge-5-2"/>
    </vehicle>
    <vehicle id="flow0.176" depart="892.42">
        <route edges="edge-11-8 edge-8-4 edge-4-5 edge-5-2"/>
    </vehicle>
    <vehicle id="flow0.177" depart="895.35">
        <route edges="edge-11-8 edge-8-4 edge-4-5 edge-5-2"/>
    </vehicle>
    <vehicle id="flow0.178" depart="898.19">
        <route edges="edge-11-8 edge-8-4 edge-4-5 edge-5-2"/>
    </vehicle>
    <vehicle id="flow0.179" depart="904.81">
        <route edges="edge-11-8 edge-8-4 edge-4-5 edge-5-2"/>
    </vehicle>
    <vehicle id="flow0.180" depart="912.17">
        <route edges="edge-11-8 edge-8-4 edge-4-5 edge-5-2"/>
    </vehicle>
    <vehicle id="flow0.181" depart="913.75">
        <route edges="edge-11-8 edge-8-4 edge-4-5 edge-5-2"/>
    </vehicle>
    <vehicle id="flow0.182" depart="918.05">
        <route edges="edge-11-8 edge-8-4 edge-4-5 edge-5-2"/>
    </vehicle>
    <vehicle id="flow0.183" depart="918.80">
        <route edges="edge-11-8 edge-8-4 edge-4-5 edge-5-2"/>
    </vehicle>
    <vehicle id="flow0.184" depart="931.37">
        <route edges="edge-11-8 edge-8-4 edge-4-5 edge-5-2"/>
    </vehicle>
    <vehicle id="flow0.185" depart="935.34">
        <route edges="edge-11-8 edge-8-4 edge-4-5 edge-5-2"/>
    </vehicle>
    <vehicle id="flow0.186" depart="937.85">
        <route edges="edge-11-8 edge-8-4 edge-4-5 edge-5-2"/>
    </vehicle>
    <vehicle id="flow0.187" depart="944.94">
        <route edges="edge-11-8 edge-8-4 edge-4-5 edge-5-2"/>
    </vehicle>
    <vehicle id="flow0.188" depart="953.96">
        <route edges="edge-11-8 edge-8-4 edge-4-5 edge-5-2"/>
    </vehicle>
    <vehicle id="flow0.189" depart="965.25">
        <route edges="edge-11-8 edge-8-4 edge-4-5 edge-5-2"/>
    </vehicle>
    <vehicle id="flow0.190" depart="968.63">
        <route edges="edge-11-8 edge-8-4 edge-4-5 edge-5-2"/>
    </vehicle>
    <vehicle id="flow0.191" depart="972.28">
        <route edges="edge-11-8 edge-8-4 edge-4-5 edge-5-2"/>
    </vehicle>
    <vehicle id="flow0.192" depart="973.59">
        <route edges="edge-11-8 edge-8-4 edge-4-5 edge-5-2"/>
    </vehicle>
    <vehicle id="flow0.193" depart="980.21">
        <route edges="edge-11-8 edge-8-4 edge-4-5 edge-5-2"/>
    </vehicle>
    <vehicle id="flow0.194" depart="981.87">
        <route edges="edge-11-8 edge-8-4 edge-4-5 edge-5-2"/>
    </vehicle>
    <vehicle id="flow0.195" depart="984.41">
        <route edges="edge-11-8 edge-8-4 edge-4-5 edge-5-2"/>
    </vehicle>
    <vehicle id="flow0.196" depart="989.23">
        <route edges="edge-11-8 edge-8-4 edge-4-5 edge-5-2"/>
    </vehicle>
    <vehicle id="flow0.197" depart="994.48">
        <route edges="edge-11-8 edge-8-4 edge-4-5 edge-5-2"/>
    </vehicle>
    <vehicle id="flow0.198" depart="994.90">
        <route edges="edge-11-8 edge-8-4 edge-4-5 edge-5-2"/>
    </vehicle>
    <vehicle id="flow0.199" depart="999.16">
        <route edges="edge-11-8 edge-8-4 edge-4-5 edge-5-2"/>
    </vehicle>
</routes>
