<?xml version="1.0" encoding="UTF-8"?>

<!-- generated on Tue Mar 28 21:06:11 2017 by SUMO duarouter Version 0.19.0
<?xml version="1.0" encoding="UTF-8"?>

<configuration xmlns:xsi="http://www.w3.org/2001/XMLSchema-instance" xsi:noNamespaceSchemaLocation="http://sumo-sim.org/xsd/duarouterConfiguration.xsd">

    <input>
        <net-file value="input.net.xml"/>
        <flow-files value="input.flow.xml"/>
    </input>

    <output>
        <output-file value="input.rou.xml"/>
    </output>

    <processing>
        <randomize-flows value="true"/>
    </processing>

    <random_number>
        <random value="true"/>
    </random_number>

</configuration>
-->
    <vehicle id="0" depart="0.27">
        <route edges="edge-11-8 edge-8-4 edge-4-5 edge-5-2"/>
    </vehicle>
    <vehicle id="1" depart="0.74">
        <route edges="edge-11-8 edge-8-4 edge-4-5 edge-5-2"/>
    </vehicle>
    <vehicle id="100" depart="1.50">
        <route edges="edge-2-5 edge-5-9 edge-9-8 edge-8-11"/>
    </vehicle>
    <vehicle id="300" depart="6.63">
        <route edges="edge-1-4 edge-4-8 edge-8-9 edge-9-12"/>
    </vehicle>
    <vehicle id="500" depart="9.01">
        <route edges="edge-3-4 edge-4-5 edge-5-9 edge-9-10"/>
    </vehicle>
    <vehicle id="200" depart="12.90">
        <route edges="edge-12-9 edge-9-5 edge-5-4 edge-4-1"/>
    </vehicle>
    <vehicle id="501" depart="14.88">
        <route edges="edge-3-4 edge-4-5 edge-5-9 edge-9-10"/>
    </vehicle>
    <vehicle id="301" depart="15.47">
        <route edges="edge-1-4 edge-4-8 edge-8-9 edge-9-12"/>
    </vehicle>
    <vehicle id="600" depart="15.74">
        <route edges="edge-6-5 edge-5-4 edge-4-8 edge-8-7"/>
    </vehicle>
    <vehicle id="601" depart="16.58">
        <route edges="edge-6-5 edge-5-4 edge-4-8 edge-8-7"/>
    </vehicle>
    <vehicle id="400" depart="16.80">
        <route edges="edge-10-9 edge-9-8 edge-8-4 edge-4-3"/>
    </vehicle>
    <vehicle id="2" depart="17.00">
        <route edges="edge-11-8 edge-8-4 edge-4-5 edge-5-2"/>
    </vehicle>
    <vehicle id="201" depart="17.06">
        <route edges="edge-12-9 edge-9-5 edge-5-4 edge-4-1"/>
    </vehicle>
    <vehicle id="202" depart="17.74">
        <route edges="edge-12-9 edge-9-5 edge-5-4 edge-4-1"/>
    </vehicle>
    <vehicle id="3" depart="18.55">
        <route edges="edge-11-8 edge-8-4 edge-4-5 edge-5-2"/>
    </vehicle>
    <vehicle id="302" depart="18.86">
        <route edges="edge-1-4 edge-4-8 edge-8-9 edge-9-12"/>
    </vehicle>
    <vehicle id="203" depart="19.43">
        <route edges="edge-12-9 edge-9-5 edge-5-4 edge-4-1"/>
    </vehicle>
    <vehicle id="602" depart="20.45">
        <route edges="edge-6-5 edge-5-4 edge-4-8 edge-8-7"/>
    </vehicle>
    <vehicle id="401" depart="21.69">
        <route edges="edge-10-9 edge-9-8 edge-8-4 edge-4-3"/>
    </vehicle>
    <vehicle id="4" depart="21.88">
        <route edges="edge-11-8 edge-8-4 edge-4-5 edge-5-2"/>
    </vehicle>
    <vehicle id="402" depart="22.37">
        <route edges="edge-10-9 edge-9-8 edge-8-4 edge-4-3"/>
    </vehicle>
    <vehicle id="303" depart="22.70">
        <route edges="edge-1-4 edge-4-8 edge-8-9 edge-9-12"/>
    </vehicle>
    <vehicle id="204" depart="24.25">
        <route edges="edge-12-9 edge-9-5 edge-5-4 edge-4-1"/>
    </vehicle>
    <vehicle id="700" depart="24.50">
        <route edges="edge-7-8 edge-8-9 edge-9-5 edge-5-6"/>
    </vehicle>
    <vehicle id="5" depart="24.80">
        <route edges="edge-11-8 edge-8-4 edge-4-5 edge-5-2"/>
    </vehicle>
    <vehicle id="603" depart="27.99">
        <route edges="edge-6-5 edge-5-4 edge-4-8 edge-8-7"/>
    </vehicle>
    <vehicle id="304" depart="28.16">
        <route edges="edge-1-4 edge-4-8 edge-8-9 edge-9-12"/>
    </vehicle>
    <vehicle id="701" depart="28.19">
        <route edges="edge-7-8 edge-8-9 edge-9-5 edge-5-6"/>
    </vehicle>
    <vehicle id="604" depart="30.74">
        <route edges="edge-6-5 edge-5-4 edge-4-8 edge-8-7"/>
    </vehicle>
    <vehicle id="605" depart="34.17">
        <route edges="edge-6-5 edge-5-4 edge-4-8 edge-8-7"/>
    </vehicle>
    <vehicle id="101" depart="35.69">
        <route edges="edge-2-5 edge-5-9 edge-9-8 edge-8-11"/>
    </vehicle>
    <vehicle id="305" depart="36.31">
        <route edges="edge-1-4 edge-4-8 edge-8-9 edge-9-12"/>
    </vehicle>
    <vehicle id="403" depart="37.70">
        <route edges="edge-10-9 edge-9-8 edge-8-4 edge-4-3"/>
    </vehicle>
    <vehicle id="6" depart="38.65">
        <route edges="edge-11-8 edge-8-4 edge-4-5 edge-5-2"/>
    </vehicle>
    <vehicle id="7" depart="38.72">
        <route edges="edge-11-8 edge-8-4 edge-4-5 edge-5-2"/>
    </vehicle>
    <vehicle id="8" depart="39.48">
        <route edges="edge-11-8 edge-8-4 edge-4-5 edge-5-2"/>
    </vehicle>
    <vehicle id="306" depart="40.11">
        <route edges="edge-1-4 edge-4-8 edge-8-9 edge-9-12"/>
    </vehicle>
    <vehicle id="702" depart="41.25">
        <route edges="edge-7-8 edge-8-9 edge-9-5 edge-5-6"/>
    </vehicle>
    <vehicle id="703" depart="45.21">
        <route edges="edge-7-8 edge-8-9 edge-9-5 edge-5-6"/>
    </vehicle>
    <vehicle id="102" depart="46.23">
        <route edges="edge-2-5 edge-5-9 edge-9-8 edge-8-11"/>
    </vehicle>
    <vehicle id="606" depart="46.65">
        <route edges="edge-6-5 edge-5-4 edge-4-8 edge-8-7"/>
    </vehicle>
    <vehicle id="205" depart="47.46">
        <route edges="edge-12-9 edge-9-5 edge-5-4 edge-4-1"/>
    </vehicle>
    <vehicle id="9" depart="48.19">
        <route edges="edge-11-8 edge-8-4 edge-4-5 edge-5-2"/>
    </vehicle>
    <vehicle id="607" depart="50.31">
        <route edges="edge-6-5 edge-5-4 edge-4-8 edge-8-7"/>
    </vehicle>
    <vehicle id="103" depart="53.57">
        <route edges="edge-2-5 edge-5-9 edge-9-8 edge-8-11"/>
    </vehicle>
    <vehicle id="104" depart="53.67">
        <route edges="edge-2-5 edge-5-9 edge-9-8 edge-8-11"/>
    </vehicle>
    <vehicle id="608" depart="55.84">
        <route edges="edge-6-5 edge-5-4 edge-4-8 edge-8-7"/>
    </vehicle>
    <vehicle id="10" depart="57.45">
        <route edges="edge-11-8 edge-8-4 edge-4-5 edge-5-2"/>
    </vehicle>
    <vehicle id="11" depart="57.52">
        <route edges="edge-11-8 edge-8-4 edge-4-5 edge-5-2"/>
    </vehicle>
    <vehicle id="609" depart="58.05">
        <route edges="edge-6-5 edge-5-4 edge-4-8 edge-8-7"/>
    </vehicle>
    <vehicle id="105" depart="58.58">
        <route edges="edge-2-5 edge-5-9 edge-9-8 edge-8-11"/>
    </vehicle>
    <vehicle id="502" depart="59.50">
        <route edges="edge-3-4 edge-4-5 edge-5-9 edge-9-10"/>
    </vehicle>
    <vehicle id="12" depart="61.71">
        <route edges="edge-11-8 edge-8-4 edge-4-5 edge-5-2"/>
    </vehicle>
    <vehicle id="610" depart="65.81">
        <route edges="edge-6-5 edge-5-4 edge-4-8 edge-8-7"/>
    </vehicle>
    <vehicle id="106" depart="67.15">
        <route edges="edge-2-5 edge-5-9 edge-9-8 edge-8-11"/>
    </vehicle>
    <vehicle id="503" depart="67.58">
        <route edges="edge-3-4 edge-4-5 edge-5-9 edge-9-10"/>
    </vehicle>
    <vehicle id="504" depart="67.61">
        <route edges="edge-3-4 edge-4-5 edge-5-9 edge-9-10"/>
    </vehicle>
    <vehicle id="307" depart="67.61">
        <route edges="edge-1-4 edge-4-8 edge-8-9 edge-9-12"/>
    </vehicle>
    <vehicle id="505" depart="68.69">
        <route edges="edge-3-4 edge-4-5 edge-5-9 edge-9-10"/>
    </vehicle>
    <vehicle id="404" depart="68.78">
        <route edges="edge-10-9 edge-9-8 edge-8-4 edge-4-3"/>
    </vehicle>
    <vehicle id="13" depart="69.68">
        <route edges="edge-11-8 edge-8-4 edge-4-5 edge-5-2"/>
    </vehicle>
    <vehicle id="206" depart="69.82">
        <route edges="edge-12-9 edge-9-5 edge-5-4 edge-4-1"/>
    </vehicle>
    <vehicle id="405" depart="69.86">
        <route edges="edge-10-9 edge-9-8 edge-8-4 edge-4-3"/>
    </vehicle>
    <vehicle id="308" depart="71.09">
        <route edges="edge-1-4 edge-4-8 edge-8-9 edge-9-12"/>
    </vehicle>
    <vehicle id="406" depart="71.56">
        <route edges="edge-10-9 edge-9-8 edge-8-4 edge-4-3"/>
    </vehicle>
    <vehicle id="107" depart="72.39">
        <route edges="edge-2-5 edge-5-9 edge-9-8 edge-8-11"/>
    </vehicle>
    <vehicle id="309" depart="73.00">
        <route edges="edge-1-4 edge-4-8 edge-8-9 edge-9-12"/>
    </vehicle>
    <vehicle id="310" depart="73.76">
        <route edges="edge-1-4 edge-4-8 edge-8-9 edge-9-12"/>
    </vehicle>
    <vehicle id="506" depart="78.01">
        <route edges="edge-3-4 edge-4-5 edge-5-9 edge-9-10"/>
    </vehicle>
    <vehicle id="611" depart="78.71">
        <route edges="edge-6-5 edge-5-4 edge-4-8 edge-8-7"/>
    </vehicle>
    <vehicle id="108" depart="79.94">
        <route edges="edge-2-5 edge-5-9 edge-9-8 edge-8-11"/>
    </vehicle>
    <vehicle id="109" depart="82.13">
        <route edges="edge-2-5 edge-5-9 edge-9-8 edge-8-11"/>
    </vehicle>
    <vehicle id="14" depart="82.29">
        <route edges="edge-11-8 edge-8-4 edge-4-5 edge-5-2"/>
    </vehicle>
    <vehicle id="407" depart="86.35">
        <route edges="edge-10-9 edge-9-8 edge-8-4 edge-4-3"/>
    </vehicle>
    <vehicle id="15" depart="90.23">
        <route edges="edge-11-8 edge-8-4 edge-4-5 edge-5-2"/>
    </vehicle>
    <vehicle id="408" depart="91.64">
        <route edges="edge-10-9 edge-9-8 edge-8-4 edge-4-3"/>
    </vehicle>
    <vehicle id="507" depart="93.22">
        <route edges="edge-3-4 edge-4-5 edge-5-9 edge-9-10"/>
    </vehicle>
    <vehicle id="508" depart="94.14">
        <route edges="edge-3-4 edge-4-5 edge-5-9 edge-9-10"/>
    </vehicle>
    <vehicle id="509" depart="94.26">
        <route edges="edge-3-4 edge-4-5 edge-5-9 edge-9-10"/>
    </vehicle>
    <vehicle id="311" depart="95.15">
        <route edges="edge-1-4 edge-4-8 edge-8-9 edge-9-12"/>
    </vehicle>
    <vehicle id="16" depart="95.71">
        <route edges="edge-11-8 edge-8-4 edge-4-5 edge-5-2"/>
    </vehicle>
    <vehicle id="704" depart="99.88">
        <route edges="edge-7-8 edge-8-9 edge-9-5 edge-5-6"/>
    </vehicle>
    <vehicle id="612" depart="100.69">
        <route edges="edge-6-5 edge-5-4 edge-4-8 edge-8-7"/>
    </vehicle>
    <vehicle id="110" depart="102.31">
        <route edges="edge-2-5 edge-5-9 edge-9-8 edge-8-11"/>
    </vehicle>
    <vehicle id="510" depart="102.66">
        <route edges="edge-3-4 edge-4-5 edge-5-9 edge-9-10"/>
    </vehicle>
    <vehicle id="511" depart="104.65">
        <route edges="edge-3-4 edge-4-5 edge-5-9 edge-9-10"/>
    </vehicle>
    <vehicle id="705" depart="105.37">
        <route edges="edge-7-8 edge-8-9 edge-9-5 edge-5-6"/>
    </vehicle>
    <vehicle id="613" depart="107.36">
        <route edges="edge-6-5 edge-5-4 edge-4-8 edge-8-7"/>
    </vehicle>
    <vehicle id="614" depart="108.57">
        <route edges="edge-6-5 edge-5-4 edge-4-8 edge-8-7"/>
    </vehicle>
    <vehicle id="17" depart="110.08">
        <route edges="edge-11-8 edge-8-4 edge-4-5 edge-5-2"/>
    </vehicle>
    <vehicle id="18" depart="110.73">
        <route edges="edge-11-8 edge-8-4 edge-4-5 edge-5-2"/>
    </vehicle>
    <vehicle id="615" depart="116.38">
        <route edges="edge-6-5 edge-5-4 edge-4-8 edge-8-7"/>
    </vehicle>
    <vehicle id="207" depart="119.46">
        <route edges="edge-12-9 edge-9-5 edge-5-4 edge-4-1"/>
    </vehicle>
    <vehicle id="208" depart="120.01">
        <route edges="edge-12-9 edge-9-5 edge-5-4 edge-4-1"/>
    </vehicle>
    <vehicle id="512" depart="120.51">
        <route edges="edge-3-4 edge-4-5 edge-5-9 edge-9-10"/>
    </vehicle>
    <vehicle id="209" depart="120.84">
        <route edges="edge-12-9 edge-9-5 edge-5-4 edge-4-1"/>
    </vehicle>
    <vehicle id="513" depart="123.68">
        <route edges="edge-3-4 edge-4-5 edge-5-9 edge-9-10"/>
    </vehicle>
    <vehicle id="409" depart="123.96">
        <route edges="edge-10-9 edge-9-8 edge-8-4 edge-4-3"/>
    </vehicle>
    <vehicle id="210" depart="125.56">
        <route edges="edge-12-9 edge-9-5 edge-5-4 edge-4-1"/>
    </vehicle>
    <vehicle id="706" depart="125.71">
        <route edges="edge-7-8 edge-8-9 edge-9-5 edge-5-6"/>
    </vehicle>
    <vehicle id="707" depart="129.01">
        <route edges="edge-7-8 edge-8-9 edge-9-5 edge-5-6"/>
    </vehicle>
    <vehicle id="708" depart="129.58">
        <route edges="edge-7-8 edge-8-9 edge-9-5 edge-5-6"/>
    </vehicle>
    <vehicle id="514" depart="132.51">
        <route edges="edge-3-4 edge-4-5 edge-5-9 edge-9-10"/>
    </vehicle>
    <vehicle id="410" depart="134.84">
        <route edges="edge-10-9 edge-9-8 edge-8-4 edge-4-3"/>
    </vehicle>
    <vehicle id="515" depart="135.35">
        <route edges="edge-3-4 edge-4-5 edge-5-9 edge-9-10"/>
    </vehicle>
    <vehicle id="111" depart="136.27">
        <route edges="edge-2-5 edge-5-9 edge-9-8 edge-8-11"/>
    </vehicle>
    <vehicle id="516" depart="137.34">
        <route edges="edge-3-4 edge-4-5 edge-5-9 edge-9-10"/>
    </vehicle>
    <vehicle id="312" depart="139.59">
        <route edges="edge-1-4 edge-4-8 edge-8-9 edge-9-12"/>
    </vehicle>
    <vehicle id="211" depart="139.96">
        <route edges="edge-12-9 edge-9-5 edge-5-4 edge-4-1"/>
    </vehicle>
    <vehicle id="411" depart="140.59">
        <route edges="edge-10-9 edge-9-8 edge-8-4 edge-4-3"/>
    </vehicle>
    <vehicle id="412" depart="141.19">
        <route edges="edge-10-9 edge-9-8 edge-8-4 edge-4-3"/>
    </vehicle>
    <vehicle id="616" depart="141.30">
        <route edges="edge-6-5 edge-5-4 edge-4-8 edge-8-7"/>
    </vehicle>
    <vehicle id="313" depart="141.85">
        <route edges="edge-1-4 edge-4-8 edge-8-9 edge-9-12"/>
    </vehicle>
    <vehicle id="413" depart="142.21">
        <route edges="edge-10-9 edge-9-8 edge-8-4 edge-4-3"/>
    </vehicle>
    <vehicle id="314" depart="144.27">
        <route edges="edge-1-4 edge-4-8 edge-8-9 edge-9-12"/>
    </vehicle>
    <vehicle id="112" depart="144.37">
        <route edges="edge-2-5 edge-5-9 edge-9-8 edge-8-11"/>
    </vehicle>
    <vehicle id="212" depart="144.71">
        <route edges="edge-12-9 edge-9-5 edge-5-4 edge-4-1"/>
    </vehicle>
    <vehicle id="19" depart="144.77">
        <route edges="edge-11-8 edge-8-4 edge-4-5 edge-5-2"/>
    </vehicle>
    <vehicle id="617" depart="145.34">
        <route edges="edge-6-5 edge-5-4 edge-4-8 edge-8-7"/>
    </vehicle>
    <vehicle id="517" depart="146.06">
        <route edges="edge-3-4 edge-4-5 edge-5-9 edge-9-10"/>
    </vehicle>
    <vehicle id="709" depart="146.23">
        <route edges="edge-7-8 edge-8-9 edge-9-5 edge-5-6"/>
    </vehicle>
    <vehicle id="113" depart="147.62">
        <route edges="edge-2-5 edge-5-9 edge-9-8 edge-8-11"/>
    </vehicle>
    <vehicle id="315" depart="147.99">
        <route edges="edge-1-4 edge-4-8 edge-8-9 edge-9-12"/>
    </vehicle>
    <vehicle id="518" depart="148.78">
        <route edges="edge-3-4 edge-4-5 edge-5-9 edge-9-10"/>
    </vehicle>
    <vehicle id="316" depart="157.50">
        <route edges="edge-1-4 edge-4-8 edge-8-9 edge-9-12"/>
    </vehicle>
    <vehicle id="618" depart="160.52">
        <route edges="edge-6-5 edge-5-4 edge-4-8 edge-8-7"/>
    </vehicle>
    <vehicle id="114" depart="161.59">
        <route edges="edge-2-5 edge-5-9 edge-9-8 edge-8-11"/>
    </vehicle>
    <vehicle id="414" depart="162.66">
        <route edges="edge-10-9 edge-9-8 edge-8-4 edge-4-3"/>
    </vehicle>
    <vehicle id="317" depart="163.68">
        <route edges="edge-1-4 edge-4-8 edge-8-9 edge-9-12"/>
    </vehicle>
    <vehicle id="710" depart="164.51">
        <route edges="edge-7-8 edge-8-9 edge-9-5 edge-5-6"/>
    </vehicle>
    <vehicle id="115" depart="164.53">
        <route edges="edge-2-5 edge-5-9 edge-9-8 edge-8-11"/>
    </vehicle>
    <vehicle id="116" depart="166.11">
        <route edges="edge-2-5 edge-5-9 edge-9-8 edge-8-11"/>
    </vehicle>
    <vehicle id="619" depart="167.60">
        <route edges="edge-6-5 edge-5-4 edge-4-8 edge-8-7"/>
    </vehicle>
    <vehicle id="519" depart="173.59">
        <route edges="edge-3-4 edge-4-5 edge-5-9 edge-9-10"/>
    </vehicle>
    <vehicle id="117" depart="174.82">
        <route edges="edge-2-5 edge-5-9 edge-9-8 edge-8-11"/>
    </vehicle>
    <vehicle id="520" depart="175.43">
        <route edges="edge-3-4 edge-4-5 edge-5-9 edge-9-10"/>
    </vehicle>
    <vehicle id="415" depart="177.53">
        <route edges="edge-10-9 edge-9-8 edge-8-4 edge-4-3"/>
    </vehicle>
    <vehicle id="20" depart="178.63">
        <route edges="edge-11-8 edge-8-4 edge-4-5 edge-5-2"/>
    </vehicle>
    <vehicle id="118" depart="179.04">
        <route edges="edge-2-5 edge-5-9 edge-9-8 edge-8-11"/>
    </vehicle>
    <vehicle id="213" depart="180.22">
        <route edges="edge-12-9 edge-9-5 edge-5-4 edge-4-1"/>
    </vehicle>
    <vehicle id="214" depart="180.25">
        <route edges="edge-12-9 edge-9-5 edge-5-4 edge-4-1"/>
    </vehicle>
    <vehicle id="711" depart="180.88">
        <route edges="edge-7-8 edge-8-9 edge-9-5 edge-5-6"/>
    </vehicle>
    <vehicle id="416" depart="181.77">
        <route edges="edge-10-9 edge-9-8 edge-8-4 edge-4-3"/>
    </vehicle>
    <vehicle id="417" depart="182.30">
        <route edges="edge-10-9 edge-9-8 edge-8-4 edge-4-3"/>
    </vehicle>
    <vehicle id="119" depart="182.37">
        <route edges="edge-2-5 edge-5-9 edge-9-8 edge-8-11"/>
    </vehicle>
    <vehicle id="120" depart="183.42">
        <route edges="edge-2-5 edge-5-9 edge-9-8 edge-8-11"/>
    </vehicle>
    <vehicle id="418" depart="183.91">
        <route edges="edge-10-9 edge-9-8 edge-8-4 edge-4-3"/>
    </vehicle>
    <vehicle id="215" depart="184.64">
        <route edges="edge-12-9 edge-9-5 edge-5-4 edge-4-1"/>
    </vehicle>
    <vehicle id="121" depart="184.94">
        <route edges="edge-2-5 edge-5-9 edge-9-8 edge-8-11"/>
    </vehicle>
    <vehicle id="620" depart="185.18">
        <route edges="edge-6-5 edge-5-4 edge-4-8 edge-8-7"/>
    </vehicle>
    <vehicle id="712" depart="185.60">
        <route edges="edge-7-8 edge-8-9 edge-9-5 edge-5-6"/>
    </vehicle>
    <vehicle id="318" depart="185.65">
        <route edges="edge-1-4 edge-4-8 edge-8-9 edge-9-12"/>
    </vehicle>
    <vehicle id="621" depart="186.41">
        <route edges="edge-6-5 edge-5-4 edge-4-8 edge-8-7"/>
    </vehicle>
    <vehicle id="521" depart="186.91">
        <route edges="edge-3-4 edge-4-5 edge-5-9 edge-9-10"/>
    </vehicle>
    <vehicle id="319" depart="187.14">
        <route edges="edge-1-4 edge-4-8 edge-8-9 edge-9-12"/>
    </vehicle>
    <vehicle id="320" depart="188.32">
        <route edges="edge-1-4 edge-4-8 edge-8-9 edge-9-12"/>
    </vehicle>
    <vehicle id="122" depart="189.01">
        <route edges="edge-2-5 edge-5-9 edge-9-8 edge-8-11"/>
    </vehicle>
    <vehicle id="713" depart="189.31">
        <route edges="edge-7-8 edge-8-9 edge-9-5 edge-5-6"/>
    </vehicle>
    <vehicle id="321" depart="189.74">
        <route edges="edge-1-4 edge-4-8 edge-8-9 edge-9-12"/>
    </vehicle>
    <vehicle id="714" depart="190.57">
        <route edges="edge-7-8 edge-8-9 edge-9-5 edge-5-6"/>
    </vehicle>
    <vehicle id="21" depart="191.06">
        <route edges="edge-11-8 edge-8-4 edge-4-5 edge-5-2"/>
    </vehicle>
    <vehicle id="22" depart="191.77">
        <route edges="edge-11-8 edge-8-4 edge-4-5 edge-5-2"/>
    </vehicle>
    <vehicle id="216" depart="192.07">
        <route edges="edge-12-9 edge-9-5 edge-5-4 edge-4-1"/>
    </vehicle>
    <vehicle id="23" depart="192.39">
        <route edges="edge-11-8 edge-8-4 edge-4-5 edge-5-2"/>
    </vehicle>
    <vehicle id="715" depart="193.96">
        <route edges="edge-7-8 edge-8-9 edge-9-5 edge-5-6"/>
    </vehicle>
    <vehicle id="322" depart="195.54">
        <route edges="edge-1-4 edge-4-8 edge-8-9 edge-9-12"/>
    </vehicle>
    <vehicle id="622" depart="196.14">
        <route edges="edge-6-5 edge-5-4 edge-4-8 edge-8-7"/>
    </vehicle>
    <vehicle id="24" depart="197.15">
        <route edges="edge-11-8 edge-8-4 edge-4-5 edge-5-2"/>
    </vehicle>
    <vehicle id="419" depart="197.39">
        <route edges="edge-10-9 edge-9-8 edge-8-4 edge-4-3"/>
    </vehicle>
    <vehicle id="716" depart="200.10">
        <route edges="edge-7-8 edge-8-9 edge-9-5 edge-5-6"/>
    </vehicle>
    <vehicle id="420" depart="203.67">
        <route edges="edge-10-9 edge-9-8 edge-8-4 edge-4-3"/>
    </vehicle>
    <vehicle id="25" depart="204.76">
        <route edges="edge-11-8 edge-8-4 edge-4-5 edge-5-2"/>
    </vehicle>
    <vehicle id="623" depart="205.85">
        <route edges="edge-6-5 edge-5-4 edge-4-8 edge-8-7"/>
    </vehicle>
    <vehicle id="123" depart="207.50">
        <route edges="edge-2-5 edge-5-9 edge-9-8 edge-8-11"/>
    </vehicle>
    <vehicle id="522" depart="207.63">
        <route edges="edge-3-4 edge-4-5 edge-5-9 edge-9-10"/>
    </vehicle>
    <vehicle id="717" depart="207.76">
        <route edges="edge-7-8 edge-8-9 edge-9-5 edge-5-6"/>
    </vehicle>
    <vehicle id="421" depart="208.67">
        <route edges="edge-10-9 edge-9-8 edge-8-4 edge-4-3"/>
    </vehicle>
    <vehicle id="624" depart="209.32">
        <route edges="edge-6-5 edge-5-4 edge-4-8 edge-8-7"/>
    </vehicle>
    <vehicle id="323" depart="214.14">
        <route edges="edge-1-4 edge-4-8 edge-8-9 edge-9-12"/>
    </vehicle>
    <vehicle id="324" depart="214.88">
        <route edges="edge-1-4 edge-4-8 edge-8-9 edge-9-12"/>
    </vehicle>
    <vehicle id="217" depart="216.09">
        <route edges="edge-12-9 edge-9-5 edge-5-4 edge-4-1"/>
    </vehicle>
    <vehicle id="218" depart="216.69">
        <route edges="edge-12-9 edge-9-5 edge-5-4 edge-4-1"/>
    </vehicle>
    <vehicle id="124" depart="218.72">
        <route edges="edge-2-5 edge-5-9 edge-9-8 edge-8-11"/>
    </vehicle>
    <vehicle id="718" depart="222.19">
        <route edges="edge-7-8 edge-8-9 edge-9-5 edge-5-6"/>
    </vehicle>
    <vehicle id="26" depart="224.98">
        <route edges="edge-11-8 edge-8-4 edge-4-5 edge-5-2"/>
    </vehicle>
    <vehicle id="125" depart="226.00">
        <route edges="edge-2-5 edge-5-9 edge-9-8 edge-8-11"/>
    </vehicle>
    <vehicle id="27" depart="228.63">
        <route edges="edge-11-8 edge-8-4 edge-4-5 edge-5-2"/>
    </vehicle>
    <vehicle id="523" depart="229.45">
        <route edges="edge-3-4 edge-4-5 edge-5-9 edge-9-10"/>
    </vehicle>
    <vehicle id="219" depart="232.46">
        <route edges="edge-12-9 edge-9-5 edge-5-4 edge-4-1"/>
    </vehicle>
    <vehicle id="625" depart="234.79">
        <route edges="edge-6-5 edge-5-4 edge-4-8 edge-8-7"/>
    </vehicle>
    <vehicle id="28" depart="235.50">
        <route edges="edge-11-8 edge-8-4 edge-4-5 edge-5-2"/>
    </vehicle>
    <vehicle id="126" depart="237.33">
        <route edges="edge-2-5 edge-5-9 edge-9-8 edge-8-11"/>
    </vehicle>
    <vehicle id="719" depart="237.93">
        <route edges="edge-7-8 edge-8-9 edge-9-5 edge-5-6"/>
    </vehicle>
    <vehicle id="325" depart="240.79">
        <route edges="edge-1-4 edge-4-8 edge-8-9 edge-9-12"/>
    </vehicle>
    <vehicle id="626" depart="241.23">
        <route edges="edge-6-5 edge-5-4 edge-4-8 edge-8-7"/>
    </vehicle>
    <vehicle id="326" depart="241.25">
        <route edges="edge-1-4 edge-4-8 edge-8-9 edge-9-12"/>
    </vehicle>
    <vehicle id="220" depart="242.42">
        <route edges="edge-12-9 edge-9-5 edge-5-4 edge-4-1"/>
    </vehicle>
    <vehicle id="221" depart="243.98">
        <route edges="edge-12-9 edge-9-5 edge-5-4 edge-4-1"/>
    </vehicle>
    <vehicle id="222" depart="248.15">
        <route edges="edge-12-9 edge-9-5 edge-5-4 edge-4-1"/>
    </vehicle>
    <vehicle id="422" depart="250.02">
        <route edges="edge-10-9 edge-9-8 edge-8-4 edge-4-3"/>
    </vehicle>
    <vehicle id="327" depart="251.21">
        <route edges="edge-1-4 edge-4-8 edge-8-9 edge-9-12"/>
    </vehicle>
    <vehicle id="524" depart="253.91">
        <route edges="edge-3-4 edge-4-5 edge-5-9 edge-9-10"/>
    </vehicle>
    <vehicle id="423" depart="253.95">
        <route edges="edge-10-9 edge-9-8 edge-8-4 edge-4-3"/>
    </vehicle>
    <vehicle id="525" depart="254.40">
        <route edges="edge-3-4 edge-4-5 edge-5-9 edge-9-10"/>
    </vehicle>
    <vehicle id="424" depart="256.10">
        <route edges="edge-10-9 edge-9-8 edge-8-4 edge-4-3"/>
    </vehicle>
    <vehicle id="425" depart="256.34">
        <route edges="edge-10-9 edge-9-8 edge-8-4 edge-4-3"/>
    </vehicle>
    <vehicle id="29" depart="259.68">
        <route edges="edge-11-8 edge-8-4 edge-4-5 edge-5-2"/>
    </vehicle>
    <vehicle id="127" depart="260.51">
        <route edges="edge-2-5 edge-5-9 edge-9-8 edge-8-11"/>
    </vehicle>
    <vehicle id="627" depart="261.01">
        <route edges="edge-6-5 edge-5-4 edge-4-8 edge-8-7"/>
    </vehicle>
    <vehicle id="223" depart="261.09">
        <route edges="edge-12-9 edge-9-5 edge-5-4 edge-4-1"/>
    </vehicle>
    <vehicle id="720" depart="261.66">
        <route edges="edge-7-8 edge-8-9 edge-9-5 edge-5-6"/>
    </vehicle>
    <vehicle id="30" depart="262.05">
        <route edges="edge-11-8 edge-8-4 edge-4-5 edge-5-2"/>
    </vehicle>
    <vehicle id="628" depart="264.84">
        <route edges="edge-6-5 edge-5-4 edge-4-8 edge-8-7"/>
    </vehicle>
    <vehicle id="328" depart="266.58">
        <route edges="edge-1-4 edge-4-8 edge-8-9 edge-9-12"/>
    </vehicle>
    <vehicle id="526" depart="269.50">
        <route edges="edge-3-4 edge-4-5 edge-5-9 edge-9-10"/>
    </vehicle>
    <vehicle id="629" depart="271.56">
        <route edges="edge-6-5 edge-5-4 edge-4-8 edge-8-7"/>
    </vehicle>
    <vehicle id="721" depart="274.26">
        <route edges="edge-7-8 edge-8-9 edge-9-5 edge-5-6"/>
    </vehicle>
    <vehicle id="722" depart="275.87">
        <route edges="edge-7-8 edge-8-9 edge-9-5 edge-5-6"/>
    </vehicle>
    <vehicle id="527" depart="276.98">
        <route edges="edge-3-4 edge-4-5 edge-5-9 edge-9-10"/>
    </vehicle>
    <vehicle id="224" depart="277.08">
        <route edges="edge-12-9 edge-9-5 edge-5-4 edge-4-1"/>
    </vehicle>
    <vehicle id="723" depart="277.30">
        <route edges="edge-7-8 edge-8-9 edge-9-5 edge-5-6"/>
    </vehicle>
    <vehicle id="329" depart="277.47">
        <route edges="edge-1-4 edge-4-8 edge-8-9 edge-9-12"/>
    </vehicle>
    <vehicle id="528" depart="279.83">
        <route edges="edge-3-4 edge-4-5 edge-5-9 edge-9-10"/>
    </vehicle>
    <vehicle id="529" depart="281.45">
        <route edges="edge-3-4 edge-4-5 edge-5-9 edge-9-10"/>
    </vehicle>
    <vehicle id="530" depart="281.82">
        <route edges="edge-3-4 edge-4-5 edge-5-9 edge-9-10"/>
    </vehicle>
    <vehicle id="330" depart="283.37">
        <route edges="edge-1-4 edge-4-8 edge-8-9 edge-9-12"/>
    </vehicle>
    <vehicle id="426" depart="285.04">
        <route edges="edge-10-9 edge-9-8 edge-8-4 edge-4-3"/>
    </vehicle>
    <vehicle id="724" depart="285.25">
        <route edges="edge-7-8 edge-8-9 edge-9-5 edge-5-6"/>
    </vehicle>
    <vehicle id="630" depart="286.15">
        <route edges="edge-6-5 edge-5-4 edge-4-8 edge-8-7"/>
    </vehicle>
    <vehicle id="31" depart="286.71">
        <route edges="edge-11-8 edge-8-4 edge-4-5 edge-5-2"/>
    </vehicle>
    <vehicle id="225" depart="289.82">
        <route edges="edge-12-9 edge-9-5 edge-5-4 edge-4-1"/>
    </vehicle>
    <vehicle id="531" depart="289.89">
        <route edges="edge-3-4 edge-4-5 edge-5-9 edge-9-10"/>
    </vehicle>
    <vehicle id="532" depart="290.59">
        <route edges="edge-3-4 edge-4-5 edge-5-9 edge-9-10"/>
    </vehicle>
    <vehicle id="331" depart="291.26">
        <route edges="edge-1-4 edge-4-8 edge-8-9 edge-9-12"/>
    </vehicle>
    <vehicle id="427" depart="291.47">
        <route edges="edge-10-9 edge-9-8 edge-8-4 edge-4-3"/>
    </vehicle>
    <vehicle id="32" depart="292.31">
        <route edges="edge-11-8 edge-8-4 edge-4-5 edge-5-2"/>
    </vehicle>
    <vehicle id="631" depart="292.37">
        <route edges="edge-6-5 edge-5-4 edge-4-8 edge-8-7"/>
    </vehicle>
    <vehicle id="725" depart="294.37">
        <route edges="edge-7-8 edge-8-9 edge-9-5 edge-5-6"/>
    </vehicle>
    <vehicle id="632" depart="296.90">
        <route edges="edge-6-5 edge-5-4 edge-4-8 edge-8-7"/>
    </vehicle>
    <vehicle id="226" depart="299.14">
        <route edges="edge-12-9 edge-9-5 edge-5-4 edge-4-1"/>
    </vehicle>
    <vehicle id="533" depart="300.52">
        <route edges="edge-3-4 edge-4-5 edge-5-9 edge-9-10"/>
    </vehicle>
    <vehicle id="128" depart="300.71">
        <route edges="edge-2-5 edge-5-9 edge-9-8 edge-8-11"/>
    </vehicle>
    <vehicle id="534" depart="301.19">
        <route edges="edge-3-4 edge-4-5 edge-5-9 edge-9-10"/>
    </vehicle>
    <vehicle id="332" depart="302.48">
        <route edges="edge-1-4 edge-4-8 edge-8-9 edge-9-12"/>
    </vehicle>
    <vehicle id="227" depart="303.65">
        <route edges="edge-12-9 edge-9-5 edge-5-4 edge-4-1"/>
    </vehicle>
    <vehicle id="333" depart="304.18">
        <route edges="edge-1-4 edge-4-8 edge-8-9 edge-9-12"/>
    </vehicle>
    <vehicle id="726" depart="304.26">
        <route edges="edge-7-8 edge-8-9 edge-9-5 edge-5-6"/>
    </vehicle>
    <vehicle id="129" depart="304.51">
        <route edges="edge-2-5 edge-5-9 edge-9-8 edge-8-11"/>
    </vehicle>
    <vehicle id="334" depart="305.23">
        <route edges="edge-1-4 edge-4-8 edge-8-9 edge-9-12"/>
    </vehicle>
    <vehicle id="130" depart="307.87">
        <route edges="edge-2-5 edge-5-9 edge-9-8 edge-8-11"/>
    </vehicle>
    <vehicle id="428" depart="308.44">
        <route edges="edge-10-9 edge-9-8 edge-8-4 edge-4-3"/>
    </vehicle>
    <vehicle id="633" depart="309.55">
        <route edges="edge-6-5 edge-5-4 edge-4-8 edge-8-7"/>
    </vehicle>
    <vehicle id="429" depart="310.45">
        <route edges="edge-10-9 edge-9-8 edge-8-4 edge-4-3"/>
    </vehicle>
    <vehicle id="535" depart="311.28">
        <route edges="edge-3-4 edge-4-5 edge-5-9 edge-9-10"/>
    </vehicle>
    <vehicle id="430" depart="316.08">