<?xml version="1.0" encoding="UTF-8"?>

<!-- generated on Sat Mar 25 16:17:55 2017 by SUMO duarouter Version 0.19.0
<?xml version="1.0" encoding="UTF-8"?>

<configuration xmlns:xsi="http://www.w3.org/2001/XMLSchema-instance" xsi:noNamespaceSchemaLocation="http://sumo-sim.org/xsd/duarouterConfiguration.xsd">

    <input>
        <net-file value="input.net.xml"/>
        <flow-files value="input.flow.xml"/>
    </input>

    <output>
        <output-file value="input.rou.xml"/>
    </output>

    <processing>
        <randomize-flows value="true"/>
    </processing>

    <random_number>
        <random value="true"/>
    </random_number>

</configuration>
-->
    <vehicle id="100" depart="0.15">
        <route edges="edge-2-5 edge-5-9 edge-9-8 edge-8-11"/>
    </vehicle>
    <vehicle id="500" depart="1.26">
        <route edges="edge-3-4 edge-4-5 edge-5-9 edge-9-10"/>
    </vehicle>
    <vehicle id="501" depart="1.78">
        <route edges="edge-3-4 edge-4-5 edge-5-9 edge-9-10"/>
    </vehicle>
    <vehicle id="101" depart="2.83">
        <route edges="edge-2-5 edge-5-9 edge-9-8 edge-8-11"/>
    </vehicle>
    <vehicle id="102" depart="5.49">
        <route edges="edge-2-5 edge-5-9 edge-9-8 edge-8-11"/>
    </vehicle>
    <vehicle id="600" depart="6.93">
        <route edges="edge-6-5 edge-5-4 edge-4-8 edge-8-7"/>
    </vehicle>
    <vehicle id="502" depart="8.37">
        <route edges="edge-3-4 edge-4-5 edge-5-9 edge-9-10"/>
    </vehicle>
    <vehicle id="601" depart="11.10">
        <route edges="edge-6-5 edge-5-4 edge-4-8 edge-8-7"/>
    </vehicle>
    <vehicle id="503" depart="11.23">
        <route edges="edge-3-4 edge-4-5 edge-5-9 edge-9-10"/>
    </vehicle>
    <vehicle id="602" depart="11.48">
        <route edges="edge-6-5 edge-5-4 edge-4-8 edge-8-7"/>
    </vehicle>
    <vehicle id="200" depart="11.58">
        <route edges="edge-12-9 edge-9-5 edge-5-4 edge-4-1"/>
    </vehicle>
    <vehicle id="603" depart="13.35">
        <route edges="edge-6-5 edge-5-4 edge-4-8 edge-8-7"/>
    </vehicle>
    <vehicle id="0" depart="14.96">
        <route edges="edge-11-8 edge-8-4 edge-4-5 edge-5-2"/>
    </vehicle>
    <vehicle id="400" depart="15.97">
        <route edges="edge-10-9 edge-9-8 edge-8-4 edge-4-3"/>
    </vehicle>
    <vehicle id="300" depart="18.72">
        <route edges="edge-1-4 edge-4-8 edge-8-9 edge-9-12"/>
    </vehicle>
    <vehicle id="504" depart="20.22">
        <route edges="edge-3-4 edge-4-5 edge-5-9 edge-9-10"/>
    </vehicle>
    <vehicle id="1" depart="20.77">
        <route edges="edge-11-8 edge-8-4 edge-4-5 edge-5-2"/>
    </vehicle>
    <vehicle id="103" depart="21.05">
        <route edges="edge-2-5 edge-5-9 edge-9-8 edge-8-11"/>
    </vehicle>
    <vehicle id="604" depart="21.66">
        <route edges="edge-6-5 edge-5-4 edge-4-8 edge-8-7"/>
    </vehicle>
    <vehicle id="605" depart="21.90">
        <route edges="edge-6-5 edge-5-4 edge-4-8 edge-8-7"/>
    </vehicle>
    <vehicle id="401" depart="22.82">
        <route edges="edge-10-9 edge-9-8 edge-8-4 edge-4-3"/>
    </vehicle>
    <vehicle id="201" depart="23.36">
        <route edges="edge-12-9 edge-9-5 edge-5-4 edge-4-1"/>
    </vehicle>
    <vehicle id="700" depart="23.89">
        <route edges="edge-7-8 edge-8-9 edge-9-5 edge-5-6"/>
    </vehicle>
    <vehicle id="505" depart="24.43">
        <route edges="edge-3-4 edge-4-5 edge-5-9 edge-9-10"/>
    </vehicle>
    <vehicle id="606" depart="25.09">
        <route edges="edge-6-5 edge-5-4 edge-4-8 edge-8-7"/>
    </vehicle>
    <vehicle id="402" depart="26.23">
        <route edges="edge-10-9 edge-9-8 edge-8-4 edge-4-3"/>
    </vehicle>
    <vehicle id="701" depart="26.86">
        <route edges="edge-7-8 edge-8-9 edge-9-5 edge-5-6"/>
    </vehicle>
    <vehicle id="607" depart="28.26">
        <route edges="edge-6-5 edge-5-4 edge-4-8 edge-8-7"/>
    </vehicle>
    <vehicle id="104" depart="29.11">
        <route edges="edge-2-5 edge-5-9 edge-9-8 edge-8-11"/>
    </vehicle>
    <vehicle id="2" depart="29.32">
        <route edges="edge-11-8 edge-8-4 edge-4-5 edge-5-2"/>
    </vehicle>
    <vehicle id="608" depart="29.48">
        <route edges="edge-6-5 edge-5-4 edge-4-8 edge-8-7"/>
    </vehicle>
    <vehicle id="301" depart="31.89">
        <route edges="edge-1-4 edge-4-8 edge-8-9 edge-9-12"/>
    </vehicle>
    <vehicle id="403" depart="31.96">
        <route edges="edge-10-9 edge-9-8 edge-8-4 edge-4-3"/>
    </vehicle>
    <vehicle id="506" depart="32.12">
        <route edges="edge-3-4 edge-4-5 edge-5-9 edge-9-10"/>
    </vehicle>
    <vehicle id="202" depart="32.95">
        <route edges="edge-12-9 edge-9-5 edge-5-4 edge-4-1"/>
    </vehicle>
    <vehicle id="105" depart="36.60">
        <route edges="edge-2-5 edge-5-9 edge-9-8 edge-8-11"/>
    </vehicle>
    <vehicle id="302" depart="38.52">
        <route edges="edge-1-4 edge-4-8 edge-8-9 edge-9-12"/>
    </vehicle>
    <vehicle id="3" depart="40.03">
        <route edges="edge-11-8 edge-8-4 edge-4-5 edge-5-2"/>
    </vehicle>
    <vehicle id="106" depart="40.62">
        <route edges="edge-2-5 edge-5-9 edge-9-8 edge-8-11"/>
    </vehicle>
    <vehicle id="107" depart="44.00">
        <route edges="edge-2-5 edge-5-9 edge-9-8 edge-8-11"/>
    </vehicle>
    <vehicle id="702" depart="45.01">
        <route edges="edge-7-8 edge-8-9 edge-9-5 edge-5-6"/>
    </vehicle>
    <vehicle id="609" depart="46.01">
        <route edges="edge-6-5 edge-5-4 edge-4-8 edge-8-7"/>
    </vehicle>
    <vehicle id="610" depart="49.31">
        <route edges="edge-6-5 edge-5-4 edge-4-8 edge-8-7"/>
    </vehicle>
    <vehicle id="703" depart="54.44">
        <route edges="edge-7-8 edge-8-9 edge-9-5 edge-5-6"/>
    </vehicle>
    <vehicle id="507" depart="55.80">
        <route edges="edge-3-4 edge-4-5 edge-5-9 edge-9-10"/>
    </vehicle>
    <vehicle id="203" depart="56.34">
        <route edges="edge-12-9 edge-9-5 edge-5-4 edge-4-1"/>
    </vehicle>
    <vehicle id="508" depart="57.02">
        <route edges="edge-3-4 edge-4-5 edge-5-9 edge-9-10"/>
    </vehicle>
    <vehicle id="108" depart="57.04">
        <route edges="edge-2-5 edge-5-9 edge-9-8 edge-8-11"/>
    </vehicle>
    <vehicle id="509" depart="57.20">
        <route edges="edge-3-4 edge-4-5 edge-5-9 edge-9-10"/>
    </vehicle>
    <vehicle id="404" depart="57.99">
        <route edges="edge-10-9 edge-9-8 edge-8-4 edge-4-3"/>
    </vehicle>
    <vehicle id="704" depart="58.17">
        <route edges="edge-7-8 edge-8-9 edge-9-5 edge-5-6"/>
    </vehicle>
    <vehicle id="510" depart="58.26">
        <route edges="edge-3-4 edge-4-5 edge-5-9 edge-9-10"/>
    </vehicle>
    <vehicle id="204" depart="58.30">
        <route edges="edge-12-9 edge-9-5 edge-5-4 edge-4-1"/>
    </vehicle>
    <vehicle id="303" depart="60.52">
        <route edges="edge-1-4 edge-4-8 edge-8-9 edge-9-12"/>
    </vehicle>
    <vehicle id="205" depart="63.94">
        <route edges="edge-12-9 edge-9-5 edge-5-4 edge-4-1"/>
    </vehicle>
    <vehicle id="206" depart="65.11">
        <route edges="edge-12-9 edge-9-5 edge-5-4 edge-4-1"/>
    </vehicle>
    <vehicle id="705" depart="65.21">
        <route edges="edge-7-8 edge-8-9 edge-9-5 edge-5-6"/>
    </vehicle>
    <vehicle id="706" depart="65.92">
        <route edges="edge-7-8 edge-8-9 edge-9-5 edge-5-6"/>
    </vehicle>
    <vehicle id="707" depart="66.13">
        <route edges="edge-7-8 edge-8-9 edge-9-5 edge-5-6"/>
    </vehicle>
    <vehicle id="109" depart="66.99">
        <route edges="edge-2-5 edge-5-9 edge-9-8 edge-8-11"/>
    </vehicle>
    <vehicle id="110" depart="67.89">
        <route edges="edge-2-5 edge-5-9 edge-9-8 edge-8-11"/>
    </vehicle>
    <vehicle id="4" depart="68.14">
        <route edges="edge-11-8 edge-8-4 edge-4-5 edge-5-2"/>
    </vehicle>
    <vehicle id="708" depart="68.16">
        <route edges="edge-7-8 edge-8-9 edge-9-5 edge-5-6"/>
    </vehicle>
    <vehicle id="207" depart="69.31">
        <route edges="edge-12-9 edge-9-5 edge-5-4 edge-4-1"/>
    </vehicle>
    <vehicle id="304" depart="70.08">
        <route edges="edge-1-4 edge-4-8 edge-8-9 edge-9-12"/>
    </vehicle>
    <vehicle id="611" depart="70.11">
        <route edges="edge-6-5 edge-5-4 edge-4-8 edge-8-7"/>
    </vehicle>
    <vehicle id="208" depart="70.88">
        <route edges="edge-12-9 edge-9-5 edge-5-4 edge-4-1"/>
    </vehicle>
    <vehicle id="305" depart="71.06">
        <route edges="edge-1-4 edge-4-8 edge-8-9 edge-9-12"/>
    </vehicle>
    <vehicle id="111" depart="75.94">
        <route edges="edge-2-5 edge-5-9 edge-9-8 edge-8-11"/>
    </vehicle>
    <vehicle id="306" depart="76.10">
        <route edges="edge-1-4 edge-4-8 edge-8-9 edge-9-12"/>
    </vehicle>
    <vehicle id="5" depart="77.49">
        <route edges="edge-11-8 edge-8-4 edge-4-5 edge-5-2"/>
    </vehicle>
    <vehicle id="307" depart="77.79">
        <route edges="edge-1-4 edge-4-8 edge-8-9 edge-9-12"/>
    </vehicle>
    <vehicle id="308" depart="78.69">
        <route edges="edge-1-4 edge-4-8 edge-8-9 edge-9-12"/>
    </vehicle>
    <vehicle id="612" depart="80.95">
        <route edges="edge-6-5 edge-5-4 edge-4-8 edge-8-7"/>
    </vehicle>
    <vehicle id="209" depart="82.97">
        <route edges="edge-12-9 edge-9-5 edge-5-4 edge-4-1"/>
    </vehicle>
    <vehicle id="6" depart="84.83">
        <route edges="edge-11-8 edge-8-4 edge-4-5 edge-5-2"/>
    </vehicle>
    <vehicle id="309" depart="84.84">
        <route edges="edge-1-4 edge-4-8 edge-8-9 edge-9-12"/>
    </vehicle>
    <vehicle id="210" depart="86.09">
        <route edges="edge-12-9 edge-9-5 edge-5-4 edge-4-1"/>
    </vehicle>
    <vehicle id="7" depart="87.48">
        <route edges="edge-11-8 edge-8-4 edge-4-5 edge-5-2"/>
    </vehicle>
    <vehicle id="211" depart="90.59">
        <route edges="edge-12-9 edge-9-5 edge-5-4 edge-4-1"/>
    </vehicle>
    <vehicle id="405" depart="91.19">
        <route edges="edge-10-9 edge-9-8 edge-8-4 edge-4-3"/>
    </vehicle>
    <vehicle id="709" depart="92.11">
        <route edges="edge-7-8 edge-8-9 edge-9-5 edge-5-6"/>
    </vehicle>
    <vehicle id="511" depart="92.28">
        <route edges="edge-3-4 edge-4-5 edge-5-9 edge-9-10"/>
    </vehicle>
    <vehicle id="8" depart="93.04">
        <route edges="edge-11-8 edge-8-4 edge-4-5 edge-5-2"/>
    </vehicle>
    <vehicle id="212" depart="93.89">
        <route edges="edge-12-9 edge-9-5 edge-5-4 edge-4-1"/>
    </vehicle>
    <vehicle id="112" depart="95.18">
        <route edges="edge-2-5 edge-5-9 edge-9-8 edge-8-11"/>
    </vehicle>
    <vehicle id="613" depart="95.66">
        <route edges="edge-6-5 edge-5-4 edge-4-8 edge-8-7"/>
    </vehicle>
    <vehicle id="113" depart="98.73">
        <route edges="edge-2-5 edge-5-9 edge-9-8 edge-8-11"/>
    </vehicle>
    <vehicle id="9" depart="99.75">
        <route edges="edge-11-8 edge-8-4 edge-4-5 edge-5-2"/>
    </vehicle>
    <vehicle id="614" depart="101.75">
        <route edges="edge-6-5 edge-5-4 edge-4-8 edge-8-7"/>
    </vehicle>
    <vehicle id="114" depart="102.81">
        <route edges="edge-2-5 edge-5-9 edge-9-8 edge-8-11"/>
    </vehicle>
    <vehicle id="115" depart="102.97">
        <route edges="edge-2-5 edge-5-9 edge-9-8 edge-8-11"/>
    </vehicle>
    <vehicle id="615" depart="103.47">
        <route edges="edge-6-5 edge-5-4 edge-4-8 edge-8-7"/>
    </vehicle>
    <vehicle id="213" depart="105.08">
        <route edges="edge-12-9 edge-9-5 edge-5-4 edge-4-1"/>
    </vehicle>
    <vehicle id="406" depart="108.92">
        <route edges="edge-10-9 edge-9-8 edge-8-4 edge-4-3"/>
    </vehicle>
    <vehicle id="116" depart="109.36">
        <route edges="edge-2-5 edge-5-9 edge-9-8 edge-8-11"/>
    </vehicle>
    <vehicle id="310" depart="111.61">
        <route edges="edge-1-4 edge-4-8 edge-8-9 edge-9-12"/>
    </vehicle>
    <vehicle id="117" depart="112.78">
        <route edges="edge-2-5 edge-5-9 edge-9-8 edge-8-11"/>
    </vehicle>
    <vehicle id="512" depart="112.92">
        <route edges="edge-3-4 edge-4-5 edge-5-9 edge-9-10"/>
    </vehicle>
    <vehicle id="616" depart="119.55">
        <route edges="edge-6-5 edge-5-4 edge-4-8 edge-8-7"/>
    </vehicle>
    <vehicle id="617" depart="122.44">
        <route edges="edge-6-5 edge-5-4 edge-4-8 edge-8-7"/>
    </vehicle>
    <vehicle id="407" depart="122.73">
        <route edges="edge-10-9 edge-9-8 edge-8-4 edge-4-3"/>
    </vehicle>
    <vehicle id="311" depart="124.36">
        <route edges="edge-1-4 edge-4-8 edge-8-9 edge-9-12"/>
    </vehicle>
    <vehicle id="312" depart="132.69">
        <route edges="edge-1-4 edge-4-8 edge-8-9 edge-9-12"/>
    </vehicle>
    <vehicle id="214" depart="134.48">
        <route edges="edge-12-9 edge-9-5 edge-5-4 edge-4-1"/>
    </vehicle>
    <vehicle id="408" depart="134.63">
        <route edges="edge-10-9 edge-9-8 edge-8-4 edge-4-3"/>
    </vehicle>
    <vehicle id="710" depart="135.56">
        <route edges="edge-7-8 edge-8-9 edge-9-5 edge-5-6"/>
    </vehicle>
    <vehicle id="215" depart="138.66">
        <route edges="edge-12-9 edge-9-5 edge-5-4 edge-4-1"/>
    </vehicle>
    <vehicle id="513" depart="138.88">
        <route edges="edge-3-4 edge-4-5 edge-5-9 edge-9-10"/>
    </vehicle>
    <vehicle id="216" depart="140.38">
        <route edges="edge-12-9 edge-9-5 edge-5-4 edge-4-1"/>
    </vehicle>
    <vehicle id="10" depart="140.87">
        <route edges="edge-11-8 edge-8-4 edge-4-5 edge-5-2"/>
    </vehicle>
    <vehicle id="409" depart="140.94">
        <route edges="edge-10-9 edge-9-8 edge-8-4 edge-4-3"/>
    </vehicle>
    <vehicle id="514" depart="141.62">
        <route edges="edge-3-4 edge-4-5 edge-5-9 edge-9-10"/>
    </vehicle>
    <vehicle id="217" depart="142.02">
        <route edges="edge-12-9 edge-9-5 edge-5-4 edge-4-1"/>
    </vehicle>
    <vehicle id="410" depart="145.27">
        <route edges="edge-10-9 edge-9-8 edge-8-4 edge-4-3"/>
    </vehicle>
    <vehicle id="118" depart="145.51">
        <route edges="edge-2-5 edge-5-9 edge-9-8 edge-8-11"/>
    </vehicle>
    <vehicle id="119" depart="145.99">
        <route edges="edge-2-5 edge-5-9 edge-9-8 edge-8-11"/>
    </vehicle>
    <vehicle id="515" depart="147.98">
        <route edges="edge-3-4 edge-4-5 edge-5-9 edge-9-10"/>
    </vehicle>
    <vehicle id="218" depart="148.89">
        <route edges="edge-12-9 edge-9-5 edge-5-4 edge-4-1"/>
    </vehicle>
    <vehicle id="711" depart="149.76">
        <route edges="edge-7-8 edge-8-9 edge-9-5 edge-5-6"/>
    </vehicle>
    <vehicle id="712" depart="152.83">
        <route edges="edge-7-8 edge-8-9 edge-9-5 edge-5-6"/>
    </vehicle>
    <vehicle id="713" depart="155.07">
        <route edges="edge-7-8 edge-8-9 edge-9-5 edge-5-6"/>
    </vehicle>
    <vehicle id="714" depart="156.35">
        <route edges="edge-7-8 edge-8-9 edge-9-5 edge-5-6"/>
    </vehicle>
    <vehicle id="313" depart="157.50">
        <route edges="edge-1-4 edge-4-8 edge-8-9 edge-9-12"/>
    </vehicle>
    <vehicle id="219" depart="159.12">
        <route edges="edge-12-9 edge-9-5 edge-5-4 edge-4-1"/>
    </vehicle>
    <vehicle id="314" depart="159.62">
        <route edges="edge-1-4 edge-4-8 edge-8-9 edge-9-12"/>
    </vehicle>
    <vehicle id="120" depart="159.73">
        <route edges="edge-2-5 edge-5-9 edge-9-8 edge-8-11"/>
    </vehicle>
    <vehicle id="411" depart="162.74">
        <route edges="edge-10-9 edge-9-8 edge-8-4 edge-4-3"/>
    </vehicle>
    <vehicle id="412" depart="163.47">
        <route edges="edge-10-9 edge-9-8 edge-8-4 edge-4-3"/>
    </vehicle>
    <vehicle id="315" depart="164.11">
        <route edges="edge-1-4 edge-4-8 edge-8-9 edge-9-12"/>
    </vehicle>
    <vehicle id="220" depart="167.10">
        <route edges="edge-12-9 edge-9-5 edge-5-4 edge-4-1"/>
    </vehicle>
    <vehicle id="413" depart="169.31">
        <route edges="edge-10-9 edge-9-8 edge-8-4 edge-4-3"/>
    </vehicle>
    <vehicle id="618" depart="175.72">
        <route edges="edge-6-5 edge-5-4 edge-4-8 edge-8-7"/>
    </vehicle>
    <vehicle id="516" depart="178.69">
        <route edges="edge-3-4 edge-4-5 edge-5-9 edge-9-10"/>
    </vehicle>
    <vehicle id="414" depart="179.33">
        <route edges="edge-10-9 edge-9-8 edge-8-4 edge-4-3"/>
    </vehicle>
    <vehicle id="221" depart="179.41">
        <route edges="edge-12-9 edge-9-5 edge-5-4 edge-4-1"/>
    </vehicle>
    <vehicle id="517" depart="179.80">
        <route edges="edge-3-4 edge-4-5 edge-5-9 edge-9-10"/>
    </vehicle>
    <vehicle id="415" depart="180.14">
        <route edges="edge-10-9 edge-9-8 edge-8-4 edge-4-3"/>
    </vehicle>
    <vehicle id="11" depart="180.73">
        <route edges="edge-11-8 edge-8-4 edge-4-5 edge-5-2"/>
    </vehicle>
    <vehicle id="12" depart="180.90">
        <route edges="edge-11-8 edge-8-4 edge-4-5 edge-5-2"/>
    </vehicle>
    <vehicle id="316" depart="181.81">
        <route edges="edge-1-4 edge-4-8 edge-8-9 edge-9-12"/>
    </vehicle>
    <vehicle id="13" depart="181.83">
        <route edges="edge-11-8 edge-8-4 edge-4-5 edge-5-2"/>
    </vehicle>
    <vehicle id="121" depart="182.92">
        <route edges="edge-2-5 edge-5-9 edge-9-8 edge-8-11"/>
    </vehicle>
    <vehicle id="715" depart="186.33">
        <route edges="edge-7-8 edge-8-9 edge-9-5 edge-5-6"/>
    </vehicle>
    <vehicle id="716" depart="187.76">
        <route edges="edge-7-8 edge-8-9 edge-9-5 edge-5-6"/>
    </vehicle>
    <vehicle id="717" depart="187.94">
        <route edges="edge-7-8 edge-8-9 edge-9-5 edge-5-6"/>
    </vehicle>
    <vehicle id="14" depart="190.57">
        <route edges="edge-11-8 edge-8-4 edge-4-5 edge-5-2"/>
    </vehicle>
    <vehicle id="317" depart="190.60">
        <route edges="edge-1-4 edge-4-8 edge-8-9 edge-9-12"/>
    </vehicle>
    <vehicle id="619" depart="191.77">
        <route edges="edge-6-5 edge-5-4 edge-4-8 edge-8-7"/>
    </vehicle>
    <vehicle id="620" depart="193.79">
        <route edges="edge-6-5 edge-5-4 edge-4-8 edge-8-7"/>
    </vehicle>
    <vehicle id="518" depart="194.65">
        <route edges="edge-3-4 edge-4-5 edge-5-9 edge-9-10"/>
    </vehicle>
    <vehicle id="318" depart="195.73">
        <route edges="edge-1-4 edge-4-8 edge-8-9 edge-9-12"/>
    </vehicle>
    <vehicle id="222" depart="196.72">
        <route edges="edge-12-9 edge-9-5 edge-5-4 edge-4-1"/>
    </vehicle>
    <vehicle id="621" depart="197.86">
        <route edges="edge-6-5 edge-5-4 edge-4-8 edge-8-7"/>
    </vehicle>
    <vehicle id="223" depart="198.14">
        <route edges="edge-12-9 edge-9-5 edge-5-4 edge-4-1"/>
    </vehicle>
    <vehicle id="622" depart="198.31">
        <route edges="edge-6-5 edge-5-4 edge-4-8 edge-8-7"/>
    </vehicle>
    <vehicle id="519" depart="198.60">
        <route edges="edge-3-4 edge-4-5 edge-5-9 edge-9-10"/>
    </vehicle>
    <vehicle id="15" depart="200.07">
        <route edges="edge-11-8 edge-8-4 edge-4-5 edge-5-2"/>
    </vehicle>
    <vehicle id="416" depart="201.19">
        <route edges="edge-10-9 edge-9-8 edge-8-4 edge-4-3"/>
    </vehicle>
    <vehicle id="122" depart="201.71">
        <route edges="edge-2-5 edge-5-9 edge-9-8 edge-8-11"/>
    </vehicle>
    <vehicle id="520" depart="203.16">
        <route edges="edge-3-4 edge-4-5 edge-5-9 edge-9-10"/>
    </vehicle>
    <vehicle id="521" depart="204.31">
        <route edges="edge-3-4 edge-4-5 edge-5-9 edge-9-10"/>
    </vehicle>
    <vehicle id="522" depart="206.71">
        <route edges="edge-3-4 edge-4-5 edge-5-9 edge-9-10"/>
    </vehicle>
    <vehicle id="123" depart="207.40">
        <route edges="edge-2-5 edge-5-9 edge-9-8 edge-8-11"/>
    </vehicle>
    <vehicle id="16" depart="208.41">
        <route edges="edge-11-8 edge-8-4 edge-4-5 edge-5-2"/>
    </vehicle>
    <vehicle id="718" depart="209.09">
        <route edges="edge-7-8 edge-8-9 edge-9-5 edge-5-6"/>
    </vehicle>
    <vehicle id="417" depart="209.43">
        <route edges="edge-10-9 edge-9-8 edge-8-4 edge-4-3"/>
    </vehicle>
    <vehicle id="623" depart="211.55">
        <route edges="edge-6-5 edge-5-4 edge-4-8 edge-8-7"/>
    </vehicle>
    <vehicle id="523" depart="212.00">
        <route edges="edge-3-4 edge-4-5 edge-5-9 edge-9-10"/>
    </vehicle>
    <vehicle id="17" depart="212.33">
        <route edges="edge-11-8 edge-8-4 edge-4-5 edge-5-2"/>
    </vehicle>
    <vehicle id="624" depart="212.88">
        <route edges="edge-6-5 edge-5-4 edge-4-8 edge-8-7"/>
    </vehicle>
    <vehicle id="224" depart="213.41">
        <route edges="edge-12-9 edge-9-5 edge-5-4 edge-4-1"/>
    </vehicle>
    <vehicle id="719" depart="214.46">
        <route edges="edge-7-8 edge-8-9 edge-9-5 edge-5-6"/>
    </vehicle>
    <vehicle id="18" depart="214.71">
        <route edges="edge-11-8 edge-8-4 edge-4-5 edge-5-2"/>
    </vehicle>
    <vehicle id="319" depart="215.67">
        <route edges="edge-1-4 edge-4-8 edge-8-9 edge-9-12"/>
    </vehicle>
    <vehicle id="320" depart="217.89">
        <route edges="edge-1-4 edge-4-8 edge-8-9 edge-9-12"/>
    </vehicle>
    <vehicle id="19" depart="218.25">
        <route edges="edge-11-8 edge-8-4 edge-4-5 edge-5-2"/>
    </vehicle>
    <vehicle id="225" depart="218.43">
        <route edges="edge-12-9 edge-9-5 edge-5-4 edge-4-1"/>
    </vehicle>
    <vehicle id="720" depart="219.99">
        <route edges="edge-7-8 edge-8-9 edge-9-5 edge-5-6"/>
    </vehicle>
    <vehicle id="124" depart="220.33">
        <route edges="edge-2-5 edge-5-9 edge-9-8 edge-8-11"/>
    </vehicle>
    <vehicle id="321" depart="222.51">
        <route edges="edge-1-4 edge-4-8 edge-8-9 edge-9-12"/>
    </vehicle>
    <vehicle id="524" depart="222.59">
        <route edges="edge-3-4 edge-4-5 edge-5-9 edge-9-10"/>
    </vehicle>
    <vehicle id="418" depart="223.51">
        <route edges="edge-10-9 edge-9-8 edge-8-4 edge-4-3"/>
    </vehicle>
    <vehicle id="525" depart="224.52">
        <route edges="edge-3-4 edge-4-5 edge-5-9 edge-9-10"/>
    </vehicle>
    <vehicle id="625" depart="226.57">
        <route edges="edge-6-5 edge-5-4 edge-4-8 edge-8-7"/>
    </vehicle>
    <vehicle id="626" depart="228.02">
        <route edges="edge-6-5 edge-5-4 edge-4-8 edge-8-7"/>
    </vehicle>
    <vehicle id="322" depart="228.09">
        <route edges="edge-1-4 edge-4-8 edge-8-9 edge-9-12"/>
    </vehicle>
    <vehicle id="419" depart="229.11">
        <route edges="edge-10-9 edge-9-8 edge-8-4 edge-4-3"/>
    </vehicle>
    <vehicle id="526" depart="229.89">
        <route edges="edge-3-4 edge-4-5 edge-5-9 edge-9-10"/>
    </vehicle>
    <vehicle id="420" depart="229.96">
        <route edges="edge-10-9 edge-9-8 edge-8-4 edge-4-3"/>
    </vehicle>
    <vehicle id="323" depart="230.17">
        <route edges="edge-1-4 edge-4-8 edge-8-9 edge-9-12"/>
    </vehicle>
    <vehicle id="324" depart="230.73">
        <route edges="edge-1-4 edge-4-8 edge-8-9 edge-9-12"/>
    </vehicle>
    <vehicle id="721" depart="233.15">
        <route edges="edge-7-8 edge-8-9 edge-9-5 edge-5-6"/>
    </vehicle>
    <vehicle id="527" depart="237.12">
        <route edges="edge-3-4 edge-4-5 edge-5-9 edge-9-10"/>
    </vehicle>
    <vehicle id="125" depart="237.15">
        <route edges="edge-2-5 edge-5-9 edge-9-8 edge-8-11"/>
    </vehicle>
    <vehicle id="528" depart="238.45">
        <route edges="edge-3-4 edge-4-5 edge-5-9 edge-9-10"/>
    </vehicle>
    <vehicle id="226" depart="238.81">
        <route edges="edge-12-9 edge-9-5 edge-5-4 edge-4-1"/>
    </vehicle>
    <vehicle id="227" depart="240.52">
        <route edges="edge-12-9 edge-9-5 edge-5-4 edge-4-1"/>
    </vehicle>
    <vehicle id="228" depart="245.06">
        <route edges="edge-12-9 edge-9-5 edge-5-4 edge-4-1"/>
    </vehicle>
    <vehicle id="325" depart="246.37">
        <route edges="edge-1-4 edge-4-8 edge-8-9 edge-9-12"/>
    </vehicle>
    <vehicle id="722" depart="246.85">
        <route edges="edge-7-8 edge-8-9 edge-9-5 edge-5-6"/>
    </vehicle>
    <vehicle id="326" depart="247.11">
        <route edges="edge-1-4 edge-4-8 edge-8-9 edge-9-12"/>
    </vehicle>
    <vehicle id="627" depart="247.24">
        <route edges="edge-6-5 edge-5-4 edge-4-8 edge-8-7"/>
    </vehicle>
    <vehicle id="628" depart="248.16">
        <route edges="edge-6-5 edge-5-4 edge-4-8 edge-8-7"/>
    </vehicle>
    <vehicle id="723" depart="249.47">
        <route edges="edge-7-8 edge-8-9 edge-9-5 edge-5-6"/>
    </vehicle>
    <vehicle id="629" depart="249.68">
        <route edges="edge-6-5 edge-5-4 edge-4-8 edge-8-7"/>
    </vehicle>
    <vehicle id="724" depart="251.44">
        <route edges="edge-7-8 edge-8-9 edge-9-5 edge-5-6"/>
    </vehicle>
    <vehicle id="327" depart="254.02">
        <route edges="edge-1-4 edge-4-8 edge-8-9 edge-9-12"/>
    </vehicle>
    <vehicle id="421" depart="254.06">
        <route edges="edge-10-9 edge-9-8 edge-8-4 edge-4-3"/>
    </vehicle>
    <vehicle id="126" depart="255.01">
        <route edges="edge-2-5 edge-5-9 edge-9-8 edge-8-11"/>
    </vehicle>
    <vehicle id="725" depart="256.54">
        <route edges="edge-7-8 edge-8-9 edge-9-5 edge-5-6"/>
    </vehicle>
    <vehicle id="127" depart="257.56">
        <route edges="edge-2-5 edge-5-9 edge-9-8 edge-8-11"/>
    </vehicle>
    <vehicle id="630" depart="258.53">
        <route edges="edge-6-5 edge-5-4 edge-4-8 edge-8-7"/>
    </vehicle>
    <vehicle id="328" depart="258.79">
        <route edges="edge-1-4 edge-4-8 edge-8-9 edge-9-12"/>
    </vehicle>
    <vehicle id="529" depart="259.59">
        <route edges="edge-3-4 edge-4-5 edge-5-9 edge-9-10"/>
    </vehicle>
    <vehicle id="530" depart="260.23">
        <route edges="edge-3-4 edge-4-5 edge-5-9 edge-9-10"/>
    </vehicle>
    <vehicle id="631" depart="262.43">
        <route edges="edge-6-5 edge-5-4 edge-4-8 edge-8-7"/>
    </vehicle>
    <vehicle id="531" depart="264.02">
        <route edges="edge-3-4 edge-4-5 edge-5-9 edge-9-10"/>
    </vehicle>
    <vehicle id="20" depart="264.92">
        <route edges="edge-11-8 edge-8-4 edge-4-5 edge-5-2"/>
    </vehicle>
    <vehicle id="532" depart="267.70">
        <route edges="edge-3-4 edge-4-5 edge-5-9 edge-9-10"/>
    </vehicle>
    <vehicle id="533" depart="270.84">
        <route edges="edge-3-4 edge-4-5 edge-5-9 edge-9-10"/>
    </vehicle>
    <vehicle id="632" depart="270.93">
        <route edges="edge-6-5 edge-5-4 edge-4-8 edge-8-7"/>
    </vehicle>
    <vehicle id="229" depart="273.96">
        <route edges="edge-12-9 edge-9-5 edge-5-4 edge-4-1"/>
    </vehicle>
    <vehicle id="422" depart="274.98">
        <route edges="edge-10-9 edge-9-8 edge-8-4 edge-4-3"/>
    </vehicle>
    <vehicle id="230" depart="276.97">
        <route edges="edge-12-9 edge-9-5 edge-5-4 edge-4-1"/>
    </vehicle>
    <vehicle id="423" depart="278.35">
        <route edges="edge-10-9 edge-9-8 edge-8-4 edge-4-3"/>
    </vehicle>
    <vehicle id="128" depart="279.30">
        <route edges="edge-2-5 edge-5-9 edge-9-8 edge-8-11"/>
    </vehicle>
    <vehicle id="129" depart="284.25">
        <route edges="edge-2-5 edge-5-9 edge-9-8 edge-8-11"/>
    </vehicle>
    <vehicle id="534" depart="288.72">
        <route edges="edge-3-4 edge-4-5 edge-5-9 edge-9-10"/>
    </vehicle>
    <vehicle id="726" depart="289.25">
        <route edges="edge-7-8 edge-8-9 edge-9-5 edge-5-6"/>
    </vehicle>
    <vehicle id="21" depart="289.47">
        <route edges="edge-11-8 edge-8-4 edge-4-5 edge-5-2"/>
    </vehicle>
    <vehicle id="535" depart="289.68">
        <route edges="edge-3-4 edge-4-5 edge-5-9 edge-9-10"/>
    </vehicle>
    <vehicle id="536" depart="289.86">
        <route edges="edge-3-4 edge-4-5 edge-5-9 edge-9-10"/>
    </vehicle>
    <vehicle id="633" depart="291.42">
        <route edges="edge-6-5 edge-5-4 edge-4-8 edge-8-7"/>
    </vehicle>
    <vehicle id="22" depart="291.51">
        <route edges="edge-11-8 edge-8-4 edge-4-5 edge-5-2"/>
    </vehicle>
    <vehicle id="23" depart="292.71">
        <route edges="edge-11-8 edge-8-4 edge-4-5 edge-5-2"/>
    </vehicle>
    <vehicle id="24" depart="294.82">
        <route edges="edge-11-8 edge-8-4 edge-4-5 edge-5-2"/>
    </vehicle>
    <vehicle id="130" depart="295.26">
        <route edges="edge-2-5 edge-5-9 edge-9-8 edge-8-11"/>
    </vehicle>
    <vehicle id="634" depart="296.45">
        <route edges="edge-6-5 edge-5-4 edge-4-8 edge-8-7"/>
    </vehicle>
    <vehicle id="231" depart="298.87">
        <route edges="edge-12-9 edge-9-5 edge-5-4 edge-4-1"/>
    </vehicle>
    <vehicle id="635" depart="299.12">
        <route edges="edge-6-5 edge-5-4 edge-4-8 edge-8-7"/>
    </vehicle>
    <vehicle id="537" depart="299.24">
        <route edges="edge-3-4 edge-4-5 edge-5-9 edge-9-10"/>
    </vehicle>
    <vehicle id="636" depart="300.54">
        <route edges="edge-6-5 edge-5-4 edge-4-8 edge-8-7"/>
    </vehicle>
    <vehicle id="25" depart="300.75">
        <route edges="edge-11-8 edge-8-4 edge-4-5 edge-5-2"/>
    </vehicle>
    <vehicle id="26" depart="301.84">
        <route edges="edge-11-8 edge-8-4 edge-4-5 edge-5-2"/>
    </vehicle>
    <vehicle id="727" depart="304.16">
        <route edges="edge-7-8 edge-8-9 edge-9-5 edge-5-6"/>
    </vehicle>
    <vehicle id="131" depart="305.54">
        <route edges="edge-2-5 edge-5-9 edge-9-8 edge-8-11"/>
    </vehicle>
    <vehicle id="132" depart="305.62">
        <route edges="edge-2-5 edge-5-9 edge-9-8 edge-8-11"/>
    </vehicle>
    <vehicle id="424" depart="306.00">
        <route edges="edge-10-9 edge-9-8 edge-8-4 edge-4-3"/>
    </vehicle>
    <vehicle id="538" depart="307.30">
        <route edges="edge-3-4 edge-4-5 edge-5-9 edge-9-10"/>
    </vehicle>
    <vehicle id="425" depart="308.94">
        <route edges="edge-10-9 edge-9-8 edge-8-4 edge-4-3"/>
    </vehicle>
    <vehicle id="27" depart="312.64">
        <route edges="edge-11-8 edge-8-4 edge-4-5 edge-5-2"/>
    </vehicle>
    <vehicle id="232" depart="312.69">
        <route edges="edge-12-9 edge-9-5 edge-5-4 edge-4-1"/>
    </vehicle>
    <vehicle id="329" depart="314.45">
        <route edges="edge-1-4 edge-4-8 edge-8-9 edge-9-12"/>
    </vehicle>
    <vehicle id="28" depart="315.82">