<?xml version="1.0" encoding="UTF-8"?>

<!-- generated on Wed Mar 29 21:20:40 2017 by SUMO duarouter Version 0.19.0
<?xml version="1.0" encoding="UTF-8"?>

<configuration xmlns:xsi="http://www.w3.org/2001/XMLSchema-instance" xsi:noNamespaceSchemaLocation="http://sumo-sim.org/xsd/duarouterConfiguration.xsd">

    <input>
        <net-file value="input.net.xml"/>
        <flow-files value="input.flow.xml"/>
    </input>

    <output>
        <output-file value="input.rou.xml"/>
    </output>

    <processing>
        <randomize-flows value="true"/>
    </processing>

    <random_number>
        <random value="true"/>
    </random_number>

</configuration>
-->

<routes xmlns:xsi="http://www.w3.org/2001/XMLSchema-instance" xsi:noNamespaceSchemaLocation="http://sumo-sim.org/xsd/routes_file.xsd">
    <vehicle id="1050" depart="1.34">
        <route edges="edge-7-8 edge-8-9 edge-9-5 edge-5-6"/>
    </vehicle>
    <vehicle id="450" depart="1.82">
        <route edges="edge-1-4 edge-4-8 edge-8-9 edge-9-12"/>
    </vehicle>
    <vehicle id="451" depart="2.84">
        <route edges="edge-1-4 edge-4-8 edge-8-9 edge-9-12"/>
    </vehicle>
    <vehicle id="0" depart="2.94">
        <route edges="edge-11-8 edge-8-4 edge-4-5 edge-5-2"/>
    </vehicle>
    <vehicle id="150" depart="3.78">
        <route edges="edge-2-5 edge-5-9 edge-9-8 edge-8-11"/>
    </vehicle>
    <vehicle id="900" depart="5.21">
        <route edges="edge-6-5 edge-5-4 edge-4-8 edge-8-7"/>
    </vehicle>
    <vehicle id="1" depart="7.11">
        <route edges="edge-11-8 edge-8-4 edge-4-5 edge-5-2"/>
    </vehicle>
    <vehicle id="901" depart="9.43">
        <route edges="edge-6-5 edge-5-4 edge-4-8 edge-8-7"/>
    </vehicle>
    <vehicle id="2" depart="9.64">
        <route edges="edge-11-8 edge-8-4 edge-4-5 edge-5-2"/>
    </vehicle>
    <vehicle id="1051" depart="11.35">
        <route edges="edge-7-8 edge-8-9 edge-9-5 edge-5-6"/>
    </vehicle>
    <vehicle id="3" depart="12.10">
        <route edges="edge-11-8 edge-8-4 edge-4-5 edge-5-2"/>
    </vehicle>
    <vehicle id="4" depart="12.23">
        <route edges="edge-11-8 edge-8-4 edge-4-5 edge-5-2"/>
    </vehicle>
    <vehicle id="1052" depart="13.08">
        <route edges="edge-7-8 edge-8-9 edge-9-5 edge-5-6"/>
    </vehicle>
    <vehicle id="600" depart="13.48">
        <route edges="edge-10-9 edge-9-8 edge-8-4 edge-4-3"/>
    </vehicle>
    <vehicle id="1053" depart="13.52">
        <route edges="edge-7-8 edge-8-9 edge-9-5 edge-5-6"/>
    </vehicle>
    <vehicle id="750" depart="16.22">
        <route edges="edge-3-4 edge-4-5 edge-5-9 edge-9-10"/>
    </vehicle>
    <vehicle id="452" depart="20.28">
        <route edges="edge-1-4 edge-4-8 edge-8-9 edge-9-12"/>
    </vehicle>
    <vehicle id="300" depart="20.62">
        <route edges="edge-12-9 edge-9-5 edge-5-4 edge-4-1"/>
    </vehicle>
    <vehicle id="151" depart="21.55">
        <route edges="edge-2-5 edge-5-9 edge-9-8 edge-8-11"/>
    </vehicle>
    <vehicle id="152" depart="21.70">
        <route edges="edge-2-5 edge-5-9 edge-9-8 edge-8-11"/>
    </vehicle>
    <vehicle id="902" depart="21.70">
        <route edges="edge-6-5 edge-5-4 edge-4-8 edge-8-7"/>
    </vehicle>
    <vehicle id="601" depart="22.36">
        <route edges="edge-10-9 edge-9-8 edge-8-4 edge-4-3"/>
    </vehicle>
    <vehicle id="453" depart="22.42">
        <route edges="edge-1-4 edge-4-8 edge-8-9 edge-9-12"/>
    </vehicle>
    <vehicle id="1054" depart="23.53">
        <route edges="edge-7-8 edge-8-9 edge-9-5 edge-5-6"/>
    </vehicle>
    <vehicle id="301" depart="23.71">
        <route edges="edge-12-9 edge-9-5 edge-5-4 edge-4-1"/>
    </vehicle>
    <vehicle id="1055" depart="24.21">
        <route edges="edge-7-8 edge-8-9 edge-9-5 edge-5-6"/>
    </vehicle>
    <vehicle id="454" depart="24.56">
        <route edges="edge-1-4 edge-4-8 edge-8-9 edge-9-12"/>
    </vehicle>
    <vehicle id="602" depart="25.51">
        <route edges="edge-10-9 edge-9-8 edge-8-4 edge-4-3"/>
    </vehicle>
    <vehicle id="751" depart="25.56">
        <route edges="edge-3-4 edge-4-5 edge-5-9 edge-9-10"/>
    </vehicle>
    <vehicle id="752" depart="28.12">
        <route edges="edge-3-4 edge-4-5 edge-5-9 edge-9-10"/>
    </vehicle>
    <vehicle id="153" depart="28.21">
        <route edges="edge-2-5 edge-5-9 edge-9-8 edge-8-11"/>
    </vehicle>
    <vehicle id="5" depart="29.31">
        <route edges="edge-11-8 edge-8-4 edge-4-5 edge-5-2"/>
    </vehicle>
    <vehicle id="6" depart="31.75">
        <route edges="edge-11-8 edge-8-4 edge-4-5 edge-5-2"/>
    </vehicle>
    <vehicle id="302" depart="32.81">
        <route edges="edge-12-9 edge-9-5 edge-5-4 edge-4-1"/>
    </vehicle>
    <vehicle id="903" depart="32.97">
        <route edges="edge-6-5 edge-5-4 edge-4-8 edge-8-7"/>
    </vehicle>
    <vehicle id="154" depart="33.44">
        <route edges="edge-2-5 edge-5-9 edge-9-8 edge-8-11"/>
    </vehicle>
    <vehicle id="155" depart="34.30">
        <route edges="edge-2-5 edge-5-9 edge-9-8 edge-8-11"/>
    </vehicle>
    <vehicle id="455" depart="34.65">
        <route edges="edge-1-4 edge-4-8 edge-8-9 edge-9-12"/>
    </vehicle>
    <vehicle id="156" depart="34.85">
        <route edges="edge-2-5 edge-5-9 edge-9-8 edge-8-11"/>
    </vehicle>
    <vehicle id="303" depart="35.56">
        <route edges="edge-12-9 edge-9-5 edge-5-4 edge-4-1"/>
    </vehicle>
    <vehicle id="753" depart="36.19">
        <route edges="edge-3-4 edge-4-5 edge-5-9 edge-9-10"/>
    </vehicle>
    <vehicle id="456" depart="36.24">
        <route edges="edge-1-4 edge-4-8 edge-8-9 edge-9-12"/>
    </vehicle>
    <vehicle id="1056" depart="38.35">
        <route edges="edge-7-8 edge-8-9 edge-9-5 edge-5-6"/>
    </vehicle>
    <vehicle id="1057" depart="39.99">
        <route edges="edge-7-8 edge-8-9 edge-9-5 edge-5-6"/>
    </vehicle>
    <vehicle id="157" depart="40.08">
        <route edges="edge-2-5 edge-5-9 edge-9-8 edge-8-11"/>
    </vehicle>
    <vehicle id="904" depart="41.97">
        <route edges="edge-6-5 edge-5-4 edge-4-8 edge-8-7"/>
    </vehicle>
    <vehicle id="7" depart="43.36">
        <route edges="edge-11-8 edge-8-4 edge-4-5 edge-5-2"/>
    </vehicle>
    <vehicle id="8" depart="44.17">
        <route edges="edge-11-8 edge-8-4 edge-4-5 edge-5-2"/>
    </vehicle>
    <vehicle id="158" depart="44.25">
        <route edges="edge-2-5 edge-5-9 edge-9-8 edge-8-11"/>
    </vehicle>
    <vehicle id="457" depart="44.61">
        <route edges="edge-1-4 edge-4-8 edge-8-9 edge-9-12"/>
    </vehicle>
    <vehicle id="603" depart="47.04">
        <route edges="edge-10-9 edge-9-8 edge-8-4 edge-4-3"/>
    </vehicle>
    <vehicle id="905" depart="47.25">
        <route edges="edge-6-5 edge-5-4 edge-4-8 edge-8-7"/>
    </vehicle>
    <vehicle id="604" depart="47.57">
        <route edges="edge-10-9 edge-9-8 edge-8-4 edge-4-3"/>
    </vehicle>
    <vehicle id="906" depart="49.26">
        <route edges="edge-6-5 edge-5-4 edge-4-8 edge-8-7"/>
    </vehicle>
    <vehicle id="907" depart="50.71">
        <route edges="edge-6-5 edge-5-4 edge-4-8 edge-8-7"/>
    </vehicle>
    <vehicle id="304" depart="50.90">
        <route edges="edge-12-9 edge-9-5 edge-5-4 edge-4-1"/>
    </vehicle>
    <vehicle id="1058" depart="51.76">
        <route edges="edge-7-8 edge-8-9 edge-9-5 edge-5-6"/>
    </vehicle>
    <vehicle id="754" depart="51.78">
        <route edges="edge-3-4 edge-4-5 edge-5-9 edge-9-10"/>
    </vehicle>
    <vehicle id="908" depart="52.48">
        <route edges="edge-6-5 edge-5-4 edge-4-8 edge-8-7"/>
    </vehicle>
    <vehicle id="9" depart="53.36">
        <route edges="edge-11-8 edge-8-4 edge-4-5 edge-5-2"/>
    </vehicle>
    <vehicle id="605" depart="53.64">
        <route edges="edge-10-9 edge-9-8 edge-8-4 edge-4-3"/>
    </vehicle>
    <vehicle id="159" depart="55.81">
        <route edges="edge-2-5 edge-5-9 edge-9-8 edge-8-11"/>
    </vehicle>
    <vehicle id="458" depart="58.56">
        <route edges="edge-1-4 edge-4-8 edge-8-9 edge-9-12"/>
    </vehicle>
    <vehicle id="909" depart="59.30">
        <route edges="edge-6-5 edge-5-4 edge-4-8 edge-8-7"/>
    </vehicle>
    <vehicle id="606" depart="59.81">
        <route edges="edge-10-9 edge-9-8 edge-8-4 edge-4-3"/>
    </vehicle>
    <vehicle id="1059" depart="60.49">
        <route edges="edge-7-8 edge-8-9 edge-9-5 edge-5-6"/>
    </vehicle>
    <vehicle id="607" depart="60.50">
        <route edges="edge-10-9 edge-9-8 edge-8-4 edge-4-3"/>
    </vehicle>
    <vehicle id="10" depart="60.90">
        <route edges="edge-11-8 edge-8-4 edge-4-5 edge-5-2"/>
    </vehicle>
    <vehicle id="1060" depart="64.63">
        <route edges="edge-7-8 edge-8-9 edge-9-5 edge-5-6"/>
    </vehicle>
    <vehicle id="305" depart="64.93">
        <route edges="edge-12-9 edge-9-5 edge-5-4 edge-4-1"/>
    </vehicle>
    <vehicle id="608" depart="65.41">
        <route edges="edge-10-9 edge-9-8 edge-8-4 edge-4-3"/>
    </vehicle>
    <vehicle id="306" depart="65.47">
        <route edges="edge-12-9 edge-9-5 edge-5-4 edge-4-1"/>
    </vehicle>
    <vehicle id="160" depart="65.97">
        <route edges="edge-2-5 edge-5-9 edge-9-8 edge-8-11"/>
    </vehicle>
    <vehicle id="910" depart="68.41">
        <route edges="edge-6-5 edge-5-4 edge-4-8 edge-8-7"/>
    </vehicle>
    <vehicle id="911" depart="71.65">
        <route edges="edge-6-5 edge-5-4 edge-4-8 edge-8-7"/>
    </vehicle>
    <vehicle id="609" depart="71.74">
        <route edges="edge-10-9 edge-9-8 edge-8-4 edge-4-3"/>
    </vehicle>
    <vehicle id="459" depart="73.89">
        <route edges="edge-1-4 edge-4-8 edge-8-9 edge-9-12"/>
    </vehicle>
    <vehicle id="1061" depart="73.92">
        <route edges="edge-7-8 edge-8-9 edge-9-5 edge-5-6"/>
    </vehicle>
    <vehicle id="1062" depart="77.07">
        <route edges="edge-7-8 edge-8-9 edge-9-5 edge-5-6"/>
    </vehicle>
    <vehicle id="912" depart="77.65">
        <route edges="edge-6-5 edge-5-4 edge-4-8 edge-8-7"/>
    </vehicle>
    <vehicle id="1063" depart="77.71">
        <route edges="edge-7-8 edge-8-9 edge-9-5 edge-5-6"/>
    </vehicle>
    <vehicle id="161" depart="78.38">
        <route edges="edge-2-5 edge-5-9 edge-9-8 edge-8-11"/>
    </vehicle>
    <vehicle id="307" depart="79.10">
        <route edges="edge-12-9 edge-9-5 edge-5-4 edge-4-1"/>
    </vehicle>
    <vehicle id="755" depart="79.59">
        <route edges="edge-3-4 edge-4-5 edge-5-9 edge-9-10"/>
    </vehicle>
    <vehicle id="11" depart="80.29">
        <route edges="edge-11-8 edge-8-4 edge-4-5 edge-5-2"/>
    </vehicle>
    <vehicle id="12" depart="81.14">
        <route edges="edge-11-8 edge-8-4 edge-4-5 edge-5-2"/>
    </vehicle>
    <vehicle id="13" depart="82.49">
        <route edges="edge-11-8 edge-8-4 edge-4-5 edge-5-2"/>
    </vehicle>
    <vehicle id="460" depart="83.53">
        <route edges="edge-1-4 edge-4-8 edge-8-9 edge-9-12"/>
    </vehicle>
    <vehicle id="610" depart="83.84">
        <route edges="edge-10-9 edge-9-8 edge-8-4 edge-4-3"/>
    </vehicle>
    <vehicle id="1064" depart="88.82">
        <route edges="edge-7-8 edge-8-9 edge-9-5 edge-5-6"/>
    </vehicle>
    <vehicle id="308" depart="89.96">
        <route edges="edge-12-9 edge-9-5 edge-5-4 edge-4-1"/>
    </vehicle>
    <vehicle id="162" depart="90.40">
        <route edges="edge-2-5 edge-5-9 edge-9-8 edge-8-11"/>
    </vehicle>
    <vehicle id="461" depart="90.65">
        <route edges="edge-1-4 edge-4-8 edge-8-9 edge-9-12"/>
    </vehicle>
    <vehicle id="1065" depart="91.35">
        <route edges="edge-7-8 edge-8-9 edge-9-5 edge-5-6"/>
    </vehicle>
    <vehicle id="756" depart="91.65">
        <route edges="edge-3-4 edge-4-5 edge-5-9 edge-9-10"/>
    </vehicle>
    <vehicle id="462" depart="92.73">
        <route edges="edge-1-4 edge-4-8 edge-8-9 edge-9-12"/>
    </vehicle>
    <vehicle id="163" depart="92.73">
        <route edges="edge-2-5 edge-5-9 edge-9-8 edge-8-11"/>
    </vehicle>
    <vehicle id="164" depart="95.64">
        <route edges="edge-2-5 edge-5-9 edge-9-8 edge-8-11"/>
    </vehicle>
    <vehicle id="463" depart="95.69">
        <route edges="edge-1-4 edge-4-8 edge-8-9 edge-9-12"/>
    </vehicle>
    <vehicle id="14" depart="96.48">
        <route edges="edge-11-8 edge-8-4 edge-4-5 edge-5-2"/>
    </vehicle>
    <vehicle id="15" depart="96.58">
        <route edges="edge-11-8 edge-8-4 edge-4-5 edge-5-2"/>
    </vehicle>
    <vehicle id="1066" depart="97.01">
        <route edges="edge-7-8 edge-8-9 edge-9-5 edge-5-6"/>
    </vehicle>
    <vehicle id="309" depart="97.92">
        <route edges="edge-12-9 edge-9-5 edge-5-4 edge-4-1"/>
    </vehicle>
    <vehicle id="310" depart="105.02">
        <route edges="edge-12-9 edge-9-5 edge-5-4 edge-4-1"/>
    </vehicle>
    <vehicle id="165" depart="105.60">
        <route edges="edge-2-5 edge-5-9 edge-9-8 edge-8-11"/>
    </vehicle>
    <vehicle id="464" depart="106.12">
        <route edges="edge-1-4 edge-4-8 edge-8-9 edge-9-12"/>
    </vehicle>
    <vehicle id="16" depart="106.33">
        <route edges="edge-11-8 edge-8-4 edge-4-5 edge-5-2"/>
    </vehicle>
    <vehicle id="913" depart="108.10">
        <route edges="edge-6-5 edge-5-4 edge-4-8 edge-8-7"/>
    </vehicle>
    <vehicle id="465" depart="109.39">
        <route edges="edge-1-4 edge-4-8 edge-8-9 edge-9-12"/>
    </vehicle>
    <vehicle id="466" depart="110.57">
        <route edges="edge-1-4 edge-4-8 edge-8-9 edge-9-12"/>
    </vehicle>
    <vehicle id="467" depart="111.23">
        <route edges="edge-1-4 edge-4-8 edge-8-9 edge-9-12"/>
    </vehicle>
    <vehicle id="611" depart="113.19">
        <route edges="edge-10-9 edge-9-8 edge-8-4 edge-4-3"/>
    </vehicle>
    <vehicle id="1067" depart="113.34">
        <route edges="edge-7-8 edge-8-9 edge-9-5 edge-5-6"/>
    </vehicle>
    <vehicle id="914" depart="113.75">
        <route edges="edge-6-5 edge-5-4 edge-4-8 edge-8-7"/>
    </vehicle>
    <vehicle id="1068" depart="113.87">
        <route edges="edge-7-8 edge-8-9 edge-9-5 edge-5-6"/>
    </vehicle>
    <vehicle id="915" depart="115.62">
        <route edges="edge-6-5 edge-5-4 edge-4-8 edge-8-7"/>
    </vehicle>
    <vehicle id="311" depart="116.27">
        <route edges="edge-12-9 edge-9-5 edge-5-4 edge-4-1"/>
    </vehicle>
    <vehicle id="1069" depart="117.67">
        <route edges="edge-7-8 edge-8-9 edge-9-5 edge-5-6"/>
    </vehicle>
    <vehicle id="757" depart="118.08">
        <route edges="edge-3-4 edge-4-5 edge-5-9 edge-9-10"/>
    </vehicle>
    <vehicle id="312" depart="118.31">
        <route edges="edge-12-9 edge-9-5 edge-5-4 edge-4-1"/>
    </vehicle>
    <vehicle id="17" depart="118.80">
        <route edges="edge-11-8 edge-8-4 edge-4-5 edge-5-2"/>
    </vehicle>
    <vehicle id="1070" depart="119.16">
        <route edges="edge-7-8 edge-8-9 edge-9-5 edge-5-6"/>
    </vehicle>
    <vehicle id="1071" depart="119.28">
        <route edges="edge-7-8 edge-8-9 edge-9-5 edge-5-6"/>
    </vehicle>
    <vehicle id="313" depart="119.31">
        <route edges="edge-12-9 edge-9-5 edge-5-4 edge-4-1"/>
    </vehicle>
    <vehicle id="166" depart="119.81">
        <route edges="edge-2-5 edge-5-9 edge-9-8 edge-8-11"/>
    </vehicle>
    <vehicle id="1072" depart="121.41">
        <route edges="edge-7-8 edge-8-9 edge-9-5 edge-5-6"/>
    </vehicle>
    <vehicle id="314" depart="122.18">
        <route edges="edge-12-9 edge-9-5 edge-5-4 edge-4-1"/>
    </vehicle>
    <vehicle id="315" depart="123.01">
        <route edges="edge-12-9 edge-9-5 edge-5-4 edge-4-1"/>
    </vehicle>
    <vehicle id="612" depart="124.95">
        <route edges="edge-10-9 edge-9-8 edge-8-4 edge-4-3"/>
    </vehicle>
    <vehicle id="916" depart="125.22">
        <route edges="edge-6-5 edge-5-4 edge-4-8 edge-8-7"/>
    </vehicle>
    <vehicle id="316" depart="128.50">
        <route edges="edge-12-9 edge-9-5 edge-5-4 edge-4-1"/>
    </vehicle>
    <vehicle id="317" depart="130.36">
        <route edges="edge-12-9 edge-9-5 edge-5-4 edge-4-1"/>
    </vehicle>
    <vehicle id="613" depart="132.03">
        <route edges="edge-10-9 edge-9-8 edge-8-4 edge-4-3"/>
    </vehicle>
    <vehicle id="758" depart="132.10">
        <route edges="edge-3-4 edge-4-5 edge-5-9 edge-9-10"/>
    </vehicle>
    <vehicle id="167" depart="132.63">
        <route edges="edge-2-5 edge-5-9 edge-9-8 edge-8-11"/>
    </vehicle>
    <vehicle id="759" depart="132.78">
        <route edges="edge-3-4 edge-4-5 edge-5-9 edge-9-10"/>
    </vehicle>
    <vehicle id="1073" depart="133.19">
        <route edges="edge-7-8 edge-8-9 edge-9-5 edge-5-6"/>
    </vehicle>
    <vehicle id="468" depart="134.09">
        <route edges="edge-1-4 edge-4-8 edge-8-9 edge-9-12"/>
    </vehicle>
    <vehicle id="469" depart="135.48">
        <route edges="edge-1-4 edge-4-8 edge-8-9 edge-9-12"/>
    </vehicle>
    <vehicle id="318" depart="137.47">
        <route edges="edge-12-9 edge-9-5 edge-5-4 edge-4-1"/>
    </vehicle>
    <vehicle id="168" depart="137.52">
        <route edges="edge-2-5 edge-5-9 edge-9-8 edge-8-11"/>
    </vehicle>
    <vehicle id="470" depart="139.27">
        <route edges="edge-1-4 edge-4-8 edge-8-9 edge-9-12"/>
    </vehicle>
    <vehicle id="471" depart="142.86">
        <route edges="edge-1-4 edge-4-8 edge-8-9 edge-9-12"/>
    </vehicle>
    <vehicle id="18" depart="143.03">
        <route edges="edge-11-8 edge-8-4 edge-4-5 edge-5-2"/>
    </vehicle>
    <vehicle id="917" depart="143.52">
        <route edges="edge-6-5 edge-5-4 edge-4-8 edge-8-7"/>
    </vehicle>
    <vehicle id="760" depart="145.41">
        <route edges="edge-3-4 edge-4-5 edge-5-9 edge-9-10"/>
    </vehicle>
    <vehicle id="19" depart="147.84">
        <route edges="edge-11-8 edge-8-4 edge-4-5 edge-5-2"/>
    </vehicle>
    <vehicle id="761" depart="148.63">
        <route edges="edge-3-4 edge-4-5 edge-5-9 edge-9-10"/>
    </vehicle>
    <vehicle id="918" depart="150.69">
        <route edges="edge-6-5 edge-5-4 edge-4-8 edge-8-7"/>
    </vehicle>
    <vehicle id="472" depart="151.21">
        <route edges="edge-1-4 edge-4-8 edge-8-9 edge-9-12"/>
    </vehicle>
    <vehicle id="919" depart="151.37">
        <route edges="edge-6-5 edge-5-4 edge-4-8 edge-8-7"/>
    </vehicle>
    <vehicle id="762" depart="153.45">
        <route edges="edge-3-4 edge-4-5 edge-5-9 edge-9-10"/>
    </vehicle>
    <vehicle id="763" depart="153.57">
        <route edges="edge-3-4 edge-4-5 edge-5-9 edge-9-10"/>
    </vehicle>
    <vehicle id="1074" depart="154.23">
        <route edges="edge-7-8 edge-8-9 edge-9-5 edge-5-6"/>
    </vehicle>
    <vehicle id="319" depart="160.51">
        <route edges="edge-12-9 edge-9-5 edge-5-4 edge-4-1"/>
    </vehicle>
    <vehicle id="920" depart="161.07">
        <route edges="edge-6-5 edge-5-4 edge-4-8 edge-8-7"/>
    </vehicle>
    <vehicle id="320" depart="163.16">
        <route edges="edge-12-9 edge-9-5 edge-5-4 edge-4-1"/>
    </vehicle>
    <vehicle id="764" depart="165.13">
        <route edges="edge-3-4 edge-4-5 edge-5-9 edge-9-10"/>
    </vehicle>
    <vehicle id="473" depart="167.49">
        <route edges="edge-1-4 edge-4-8 edge-8-9 edge-9-12"/>
    </vehicle>
    <vehicle id="20" depart="168.03">
        <route edges="edge-11-8 edge-8-4 edge-4-5 edge-5-2"/>
    </vehicle>
    <vehicle id="169" depart="168.44">
        <route edges="edge-2-5 edge-5-9 edge-9-8 edge-8-11"/>
    </vehicle>
    <vehicle id="170" depart="169.86">
        <route edges="edge-2-5 edge-5-9 edge-9-8 edge-8-11"/>
    </vehicle>
    <vehicle id="921" depart="169.94">
        <route edges="edge-6-5 edge-5-4 edge-4-8 edge-8-7"/>
    </vehicle>
    <vehicle id="1075" depart="171.72">
        <route edges="edge-7-8 edge-8-9 edge-9-5 edge-5-6"/>
    </vehicle>
    <vehicle id="474" depart="172.17">
        <route edges="edge-1-4 edge-4-8 edge-8-9 edge-9-12"/>
    </vehicle>
    <vehicle id="321" depart="172.27">
        <route edges="edge-12-9 edge-9-5 edge-5-4 edge-4-1"/>
    </vehicle>
    <vehicle id="171" depart="173.76">
        <route edges="edge-2-5 edge-5-9 edge-9-8 edge-8-11"/>
    </vehicle>
    <vehicle id="322" depart="175.07">
        <route edges="edge-12-9 edge-9-5 edge-5-4 edge-4-1"/>
    </vehicle>
    <vehicle id="1076" depart="175.34">
        <route edges="edge-7-8 edge-8-9 edge-9-5 edge-5-6"/>
    </vehicle>
    <vehicle id="614" depart="175.54">
        <route edges="edge-10-9 edge-9-8 edge-8-4 edge-4-3"/>
    </vehicle>
    <vehicle id="475" depart="178.08">
        <route edges="edge-1-4 edge-4-8 edge-8-9 edge-9-12"/>
    </vehicle>
    <vehicle id="1077" depart="178.37">
        <route edges="edge-7-8 edge-8-9 edge-9-5 edge-5-6"/>
    </vehicle>
    <vehicle id="172" depart="179.13">
        <route edges="edge-2-5 edge-5-9 edge-9-8 edge-8-11"/>
    </vehicle>
    <vehicle id="922" depart="179.50">
        <route edges="edge-6-5 edge-5-4 edge-4-8 edge-8-7"/>
    </vehicle>
    <vehicle id="765" depart="179.62">
        <route edges="edge-3-4 edge-4-5 edge-5-9 edge-9-10"/>
    </vehicle>
    <vehicle id="615" depart="180.12">
        <route edges="edge-10-9 edge-9-8 edge-8-4 edge-4-3"/>
    </vehicle>
    <vehicle id="173" depart="182.69">
        <route edges="edge-2-5 edge-5-9 edge-9-8 edge-8-11"/>
    </vehicle>
    <vehicle id="476" depart="182.78">
        <route edges="edge-1-4 edge-4-8 edge-8-9 edge-9-12"/>
    </vehicle>
    <vehicle id="477" depart="183.71">
        <route edges="edge-1-4 edge-4-8 edge-8-9 edge-9-12"/>
    </vehicle>
    <vehicle id="174" depart="183.90">
        <route edges="edge-2-5 edge-5-9 edge-9-8 edge-8-11"/>
    </vehicle>
    <vehicle id="923" depart="185.24">
        <route edges="edge-6-5 edge-5-4 edge-4-8 edge-8-7"/>
    </vehicle>
    <vehicle id="616" depart="185.41">
        <route edges="edge-10-9 edge-9-8 edge-8-4 edge-4-3"/>
    </vehicle>
    <vehicle id="1078" depart="186.48">
        <route edges="edge-7-8 edge-8-9 edge-9-5 edge-5-6"/>
    </vehicle>
    <vehicle id="1079" depart="188.72">
        <route edges="edge-7-8 edge-8-9 edge-9-5 edge-5-6"/>
    </vehicle>
    <vehicle id="323" depart="189.79">
        <route edges="edge-12-9 edge-9-5 edge-5-4 edge-4-1"/>
    </vehicle>
    <vehicle id="617" depart="192.43">
        <route edges="edge-10-9 edge-9-8 edge-8-4 edge-4-3"/>
    </vehicle>
    <vehicle id="766" depart="193.88">
        <route edges="edge-3-4 edge-4-5 edge-5-9 edge-9-10"/>
    </vehicle>
    <vehicle id="924" depart="197.72">
        <route edges="edge-6-5 edge-5-4 edge-4-8 edge-8-7"/>
    </vehicle>
    <vehicle id="618" depart="198.16">
        <route edges="edge-10-9 edge-9-8 edge-8-4 edge-4-3"/>
    </vehicle>
    <vehicle id="478" depart="198.31">
        <route edges="edge-1-4 edge-4-8 edge-8-9 edge-9-12"/>
    </vehicle>
    <vehicle id="619" depart="199.65">
        <route edges="edge-10-9 edge-9-8 edge-8-4 edge-4-3"/>
    </vehicle>
    <vehicle id="767" depart="199.86">
        <route edges="edge-3-4 edge-4-5 edge-5-9 edge-9-10"/>
    </vehicle>
    <vehicle id="925" depart="199.90">
        <route edges="edge-6-5 edge-5-4 edge-4-8 edge-8-7"/>
    </vehicle>
    <vehicle id="768" depart="200.55">
        <route edges="edge-3-4 edge-4-5 edge-5-9 edge-9-10"/>
    </vehicle>
    <vehicle id="21" depart="201.71">
        <route edges="edge-11-8 edge-8-4 edge-4-5 edge-5-2"/>
    </vehicle>
    <vehicle id="769" depart="201.93">
        <route edges="edge-3-4 edge-4-5 edge-5-9 edge-9-10"/>
    </vehicle>
    <vehicle id="324" depart="201.96">
        <route edges="edge-12-9 edge-9-5 edge-5-4 edge-4-1"/>
    </vehicle>
    <vehicle id="1080" depart="203.75">
        <route edges="edge-7-8 edge-8-9 edge-9-5 edge-5-6"/>
    </vehicle>
    <vehicle id="325" depart="204.21">
        <route edges="edge-12-9 edge-9-5 edge-5-4 edge-4-1"/>
    </vehicle>
    <vehicle id="620" depart="204.65">
        <route edges="edge-10-9 edge-9-8 edge-8-4 edge-4-3"/>
    </vehicle>
    <vehicle id="326" depart="206.62">
        <route edges="edge-12-9 edge-9-5 edge-5-4 edge-4-1"/>
    </vehicle>
    <vehicle id="22" depart="208.06">
        <route edges="edge-11-8 edge-8-4 edge-4-5 edge-5-2"/>
    </vehicle>
    <vehicle id="926" depart="209.67">
        <route edges="edge-6-5 edge-5-4 edge-4-8 edge-8-7"/>
    </vehicle>
    <vehicle id="770" depart="210.04">
        <route edges="edge-3-4 edge-4-5 edge-5-9 edge-9-10"/>
    </vehicle>
    <vehicle id="327" depart="213.07">
        <route edges="edge-12-9 edge-9-5 edge-5-4 edge-4-1"/>
    </vehicle>
    <vehicle id="175" depart="214.33">
        <route edges="edge-2-5 edge-5-9 edge-9-8 edge-8-11"/>
    </vehicle>
    <vehicle id="1081" depart="214.86">
        <route edges="edge-7-8 edge-8-9 edge-9-5 edge-5-6"/>
    </vehicle>
    <vehicle id="771" depart="216.17">
        <route edges="edge-3-4 edge-4-5 edge-5-9 edge-9-10"/>
    </vehicle>
    <vehicle id="479" depart="217.94">
        <route edges="edge-1-4 edge-4-8 edge-8-9 edge-9-12"/>
    </vehicle>
    <vehicle id="1082" depart="218.01">
        <route edges="edge-7-8 edge-8-9 edge-9-5 edge-5-6"/>
    </vehicle>
    <vehicle id="23" depart="219.35">
        <route edges="edge-11-8 edge-8-4 edge-4-5 edge-5-2"/>
    </vehicle>
    <vehicle id="480" depart="219.76">
        <route edges="edge-1-4 edge-4-8 edge-8-9 edge-9-12"/>
    </vehicle>
    <vehicle id="1083" depart="220.43">
        <route edges="edge-7-8 edge-8-9 edge-9-5 edge-5-6"/>
    </vehicle>
    <vehicle id="24" depart="220.44">
        <route edges="edge-11-8 edge-8-4 edge-4-5 edge-5-2"/>
    </vehicle>
    <vehicle id="481" depart="221.34">
        <route edges="edge-1-4 edge-4-8 edge-8-9 edge-9-12"/>
    </vehicle>
    <vehicle id="772" depart="221.79">
        <route edges="edge-3-4 edge-4-5 edge-5-9 edge-9-10"/>
    </vehicle>
    <vehicle id="927" depart="224.95">
        <route edges="edge-6-5 edge-5-4 edge-4-8 edge-8-7"/>
    </vehicle>
    <vehicle id="621" depart="224.96">
        <route edges="edge-10-9 edge-9-8 edge-8-4 edge-4-3"/>
    </vehicle>
    <vehicle id="773" depart="227.22">
        <route edges="edge-3-4 edge-4-5 edge-5-9 edge-9-10"/>
    </vehicle>
    <vehicle id="176" depart="229.15">
        <route edges="edge-2-5 edge-5-9 edge-9-8 edge-8-11"/>
    </vehicle>
    <vehicle id="328" depart="234.34">
        <route edges="edge-12-9 edge-9-5 edge-5-4 edge-4-1"/>
    </vehicle>
    <vehicle id="1084" depart="234.47">
        <route edges="edge-7-8 edge-8-9 edge-9-5 edge-5-6"/>
    </vehicle>
    <vehicle id="928" depart="236.45">
        <route edges="edge-6-5 edge-5-4 edge-4-8 edge-8-7"/>
    </vehicle>
    <vehicle id="1085" depart="247.12">
        <route edges="edge-7-8 edge-8-9 edge-9-5 edge-5-6"/>
    </vehicle>
    <vehicle id="329" depart="249.19">
        <route edges="edge-12-9 edge-9-5 edge-5-4 edge-4-1"/>
    </vehicle>
    <vehicle id="482" depart="250.67">
        <route edges="edge-1-4 edge-4-8 edge-8-9 edge-9-12"/>
    </vehicle>
    <vehicle id="622" depart="251.36">
        <route edges="edge-10-9 edge-9-8 edge-8-4 edge-4-3"/>
    </vehicle>
    <vehicle id="929" depart="251.38">
        <route edges="edge-6-5 edge-5-4 edge-4-8 edge-8-7"/>
    </vehicle>
    <vehicle id="623" depart="252.44">
        <route edges="edge-10-9 edge-9-8 edge-8-4 edge-4-3"/>
    </vehicle>
    <vehicle id="483" depart="252.46">
        <route edges="edge-1-4 edge-4-8 edge-8-9 edge-9-12"/>
    </vehicle>
    <vehicle id="774" depart="253.87">
        <route edges="edge-3-4 edge-4-5 edge-5-9 edge-9-10"/>
    </vehicle>
    <vehicle id="775" depart="254.35">
        <route edges="edge-3-4 edge-4-5 edge-5-9 edge-9-10"/>
    </vehicle>
    <vehicle id="930" depart="255.48">
        <route edges="edge-6-5 edge-5-4 edge-4-8 edge-8-7"/>
    </vehicle>
    <vehicle id="484" depart="256.58">
        <route edges="edge-1-4 edge-4-8 edge-8-9 edge-9-12"/>
    </vehicle>
    <vehicle id="177" depart="257.62">
        <route edges="edge-2-5 edge-5-9 edge-9-8 edge-8-11"/>
    </vehicle>
    <vehicle id="485" depart="259.33">
        <route edges="edge-1-4 edge-4-8 edge-8-9 edge-9-12"/>
    </vehicle>
    <vehicle id="486" depart="259.77">
        <route edges="edge-1-4 edge-4-8 edge-8-9 edge-9-12"/>
    </vehicle>
    <vehicle id="487" depart="262.30">
        <route edges="edge-1-4 edge-4-8 edge-8-9 edge-9-12"/>
    </vehicle>
    <vehicle id="330" depart="263.69">
        <route edges="edge-12-9 edge-9-5 edge-5-4 edge-4-1"/>
    </vehicle>
    <vehicle id="931" depart="263.95">
        <route edges="edge-6-5 edge-5-4 edge-4-8 edge-8-7"/>
    </vehicle>
    <vehicle id="331" depart="264.56">
        <route edges="edge-12-9 edge-9-5 edge-5-4 edge-4-1"/>
    </vehicle>
    <vehicle id="488" depart="266.63">
        <route edges="edge-1-4 edge-4-8 edge-8-9 edge-9-12"/>
    </vehicle>
    <vehicle id="178" depart="267.95">
        <route edges="edge-2-5 edge-5-9 edge-9-8 edge-8-11"/>
    </vehicle>
    <vehicle id="624" depart="269.81">
        <route edges="edge-10-9 edge-9-8 edge-8-4 edge-4-3"/>
    </vehicle>
    <vehicle id="332" depart="270.48">
        <route edges="edge-12-9 edge-9-5 edge-5-4 edge-4-1"/>
    </vehicle>
    <vehicle id="333" depart="270.80">
        <route edges="edge-12-9 edge-9-5 edge-5-4 edge-4-1"/>
    </vehicle>
    <vehicle id="179" depart="271.33">
        <route edges="edge-2-5 edge-5-9 edge-9-8 edge-8-11"/>
    </vehicle>
    <vehicle id="1086" depart="272.28">
        <route edges="edge-7-8 edge-8-9 edge-9-5 edge-5-6"/>
    </vehicle>
    <vehicle id="625" depart="273.03">
        <route edges="edge-10-9 edge-9-8 edge-8-4 edge-4-3"/>
    </vehicle>
    <vehicle id="1087" depart="274.14">
        <route edges="edge-7-8 edge-8-9 edge-9-5 edge-5-6"/>
    </vehicle>
    <vehicle id="932" depart="274.78">
        <route edges="edge-6-5 edge-5-4 edge-4-8 edge-8-7"/>
    </vehicle>
    <vehicle id="776" depart="274.78">
        <route edges="edge-3-4 edge-4-5 edge-5-9 edge-9-10"/>
    </vehicle>
    <vehicle id="180" depart="275.06">
        <route edges="edge-2-5 edge-5-9 edge-9-8 edge-8-11"/>
    </vehicle>