<flows>   
<flow id="flow0" from="edge-11-8" to="edge-5-2" begin="0" end="1000"   
number="100" departlane="random" departpos="base"/>   

<flow id="flow1" from="edge-12-9" to="edge-4-1" begin="0" end="1000"   
number="100" departlane="random" departpos="base" />  

<flow id="flow2" from="edge-10-9" to="edge-4-3" begin="0" end="1000"
number="100" departlane="random" departpos="base" />  

<flow id="flow3" from="edge-6-5" to="edge-8-7" begin="0" end="1000"   
number="100" departlane="random" departpos="base" />  

</flows>
