<flows>   
<flow id="flow0" from="edge-11-8" to="edge-5-2" begin="0" end="100"   
number="30" departlane="random" departpos="base"/>   
<flow id="flow1" from="edge-2-5" to="edge-8-11" begin="0" end="100"   
number="30" departlane="random" departpos="base" />  
<flow id="flow2" from="edge-12-9" to="edge-4-1" begin="0" end="100"   
number="30" departlane="random" departpos="base" />  
<flow id="flow3" from="edge-1-4" to="edge-9-12" begin="0" end="100"   
number="30" departlane="random" departpos="base" />  
<flow id="flow4" from="edge-10-9" to="edge-4-3" begin="0" end="100"
number="30" departlane="random" departpos="base" />  
<flow id="flow5" from="edge-3-4" to="edge-9-10" begin="0" end="100"   
number="30" departlane="random" departpos="base" />  
<flow id="flow6" from="edge-6-5" to="edge-8-7" begin="0" end="100"   
number="30" departlane="random" departpos="base" />  
<flow id="flow7" from="edge-7-8" to="edge-5-6" begin="0" end="100"   
number="30" departlane="random" departpos="base" />  
 
</flows>
