<?xml version="1.0" encoding="UTF-8"?>

<!-- generated on Tue Mar 14 12:03:10 2017 by SUMO duarouter Version 0.19.0
<?xml version="1.0" encoding="UTF-8"?>

<configuration xmlns:xsi="http://www.w3.org/2001/XMLSchema-instance" xsi:noNamespaceSchemaLocation="http://sumo-sim.org/xsd/duarouterConfiguration.xsd">

    <input>
        <net-file value="MySUMONet.net.xml"/>
        <flow-files value="ex_FLOW.flow.xml"/>
    </input>

    <output>
        <output-file value="ex_ROU.rou.xml"/>
    </output>

</configuration>
-->

<routes xmlns:xsi="http://www.w3.org/2001/XMLSchema-instance" xsi:noNamespaceSchemaLocation="http://sumo-sim.org/xsd/routes_file.xsd">
    <vehicle id="0" depart="0.00">
        <route edges="edge-11-8 edge-8-4 edge-4-5 edge-5-2"/>
    </vehicle>
    <vehicle id="1" depart="10.00">
        <route edges="edge-11-8 edge-8-4 edge-4-5 edge-5-2"/>
    </vehicle>
    <vehicle id="2" depart="20.00">
        <route edges="edge-11-8 edge-8-4 edge-4-5 edge-5-2"/>
    </vehicle>
    <vehicle id="3" depart="30.00">
        <route edges="edge-11-8 edge-8-4 edge-4-5 edge-5-2"/>
    </vehicle>
    <vehicle id="4" depart="40.00">
        <route edges="edge-11-8 edge-8-4 edge-4-5 edge-5-2"/>
    </vehicle>
    <vehicle id="5" depart="50.00">
        <route edges="edge-11-8 edge-8-4 edge-4-5 edge-5-2"/>
    </vehicle>
    <vehicle id="6" depart="60.00">
        <route edges="edge-11-8 edge-8-4 edge-4-5 edge-5-2"/>
    </vehicle>
    <vehicle id="7" depart="70.00">
        <route edges="edge-11-8 edge-8-4 edge-4-5 edge-5-2"/>
    </vehicle>
    <vehicle id="8" depart="80.00">
        <route edges="edge-11-8 edge-8-4 edge-4-5 edge-5-2"/>
    </vehicle>
    <vehicle id="9" depart="90.00">
        <route edges="edge-11-8 edge-8-4 edge-4-5 edge-5-2"/>
    </vehicle>
    <vehicle id="10" depart="100.00">
        <route edges="edge-11-8 edge-8-4 edge-4-5 edge-5-2"/>
    </vehicle>
    <vehicle id="11" depart="110.00">
        <route edges="edge-11-8 edge-8-4 edge-4-5 edge-5-2"/>
    </vehicle>
    <vehicle id="12" depart="120.00">
        <route edges="edge-11-8 edge-8-4 edge-4-5 edge-5-2"/>
    </vehicle>
    <vehicle id="13" depart="130.00">
        <route edges="edge-11-8 edge-8-4 edge-4-5 edge-5-2"/>
    </vehicle>
    <vehicle id="14" depart="140.00">
        <route edges="edge-11-8 edge-8-4 edge-4-5 edge-5-2"/>
    </vehicle>
    <vehicle id="15" depart="150.00">
        <route edges="edge-11-8 edge-8-4 edge-4-5 edge-5-2"/>
    </vehicle>
    <vehicle id="16" depart="160.00">
        <route edges="edge-11-8 edge-8-4 edge-4-5 edge-5-2"/>
    </vehicle>
    <vehicle id="17" depart="170.00">
        <route edges="edge-11-8 edge-8-4 edge-4-5 edge-5-2"/>
    </vehicle>
    <vehicle id="18" depart="180.00">
        <route edges="edge-11-8 edge-8-4 edge-4-5 edge-5-2"/>
    </vehicle>
    <vehicle id="19" depart="190.00">
        <route edges="edge-11-8 edge-8-4 edge-4-5 edge-5-2"/>
    </vehicle>
    <vehicle id="20" depart="200.00">
        <route edges="edge-11-8 edge-8-4 edge-4-5 edge-5-2"/>
    </vehicle>
    <vehicle id="21" depart="210.00">
        <route edges="edge-11-8 edge-8-4 edge-4-5 edge-5-2"/>
    </vehicle>
    <vehicle id="22" depart="220.00">
        <route edges="edge-11-8 edge-8-4 edge-4-5 edge-5-2"/>
    </vehicle>
    <vehicle id="23" depart="230.00">
        <route edges="edge-11-8 edge-8-4 edge-4-5 edge-5-2"/>
    </vehicle>
    <vehicle id="24" depart="240.00">
        <route edges="edge-11-8 edge-8-4 edge-4-5 edge-5-2"/>
    </vehicle>
    <vehicle id="25" depart="250.00">
        <route edges="edge-11-8 edge-8-4 edge-4-5 edge-5-2"/>
    </vehicle>
    <vehicle id="26" depart="260.00">
        <route edges="edge-11-8 edge-8-4 edge-4-5 edge-5-2"/>
    </vehicle>
    <vehicle id="27" depart="270.00">
        <route edges="edge-11-8 edge-8-4 edge-4-5 edge-5-2"/>
    </vehicle>
    <vehicle id="28" depart="280.00">
        <route edges="edge-11-8 edge-8-4 edge-4-5 edge-5-2"/>
    </vehicle>
    <vehicle id="29" depart="290.00">
        <route edges="edge-11-8 edge-8-4 edge-4-5 edge-5-2"/>
    </vehicle>
    <vehicle id="30" depart="300.00">
        <route edges="edge-11-8 edge-8-4 edge-4-5 edge-5-2"/>
    </vehicle>
    <vehicle id="31" depart="310.00">
        <route edges="edge-11-8 edge-8-4 edge-4-5 edge-5-2"/>
    </vehicle>
    <vehicle id="32" depart="320.00">
        <route edges="edge-11-8 edge-8-4 edge-4-5 edge-5-2"/>
    </vehicle>
    <vehicle id="33" depart="330.00">
        <route edges="edge-11-8 edge-8-4 edge-4-5 edge-5-2"/>
    </vehicle>
    <vehicle id="34" depart="340.00">
        <route edges="edge-11-8 edge-8-4 edge-4-5 edge-5-2"/>
    </vehicle>
    <vehicle id="35" depart="350.00">
        <route edges="edge-11-8 edge-8-4 edge-4-5 edge-5-2"/>
    </vehicle>
    <vehicle id="36" depart="360.00">
        <route edges="edge-11-8 edge-8-4 edge-4-5 edge-5-2"/>
    </vehicle>
    <vehicle id="37" depart="370.00">
        <route edges="edge-11-8 edge-8-4 edge-4-5 edge-5-2"/>
    </vehicle>
    <vehicle id="38" depart="380.00">
        <route edges="edge-11-8 edge-8-4 edge-4-5 edge-5-2"/>
    </vehicle>
    <vehicle id="39" depart="390.00">
        <route edges="edge-11-8 edge-8-4 edge-4-5 edge-5-2"/>
    </vehicle>
    <vehicle id="40" depart="400.00">
        <route edges="edge-11-8 edge-8-4 edge-4-5 edge-5-2"/>
    </vehicle>
    <vehicle id="41" depart="410.00">
        <route edges="edge-11-8 edge-8-4 edge-4-5 edge-5-2"/>
    </vehicle>
    <vehicle id="42" depart="420.00">
        <route edges="edge-11-8 edge-8-4 edge-4-5 edge-5-2"/>
    </vehicle>
    <vehicle id="43" depart="430.00">
        <route edges="edge-11-8 edge-8-4 edge-4-5 edge-5-2"/>
    </vehicle>
    <vehicle id="44" depart="440.00">
        <route edges="edge-11-8 edge-8-4 edge-4-5 edge-5-2"/>
    </vehicle>
    <vehicle id="45" depart="450.00">
        <route edges="edge-11-8 edge-8-4 edge-4-5 edge-5-2"/>
    </vehicle>
    <vehicle id="46" depart="460.00">
        <route edges="edge-11-8 edge-8-4 edge-4-5 edge-5-2"/>
    </vehicle>
    <vehicle id="47" depart="470.00">
        <route edges="edge-11-8 edge-8-4 edge-4-5 edge-5-2"/>
    </vehicle>
    <vehicle id="48" depart="480.00">
        <route edges="edge-11-8 edge-8-4 edge-4-5 edge-5-2"/>
    </vehicle>
    <vehicle id="49" depart="490.00">
        <route edges="edge-11-8 edge-8-4 edge-4-5 edge-5-2"/>
    </vehicle>
    <vehicle id="50" depart="500.00">
        <route edges="edge-11-8 edge-8-4 edge-4-5 edge-5-2"/>
    </vehicle>
    <vehicle id="51" depart="510.00">
        <route edges="edge-11-8 edge-8-4 edge-4-5 edge-5-2"/>
    </vehicle>
    <vehicle id="52" depart="520.00">
        <route edges="edge-11-8 edge-8-4 edge-4-5 edge-5-2"/>
    </vehicle>
    <vehicle id="53" depart="530.00">
        <route edges="edge-11-8 edge-8-4 edge-4-5 edge-5-2"/>
    </vehicle>
    <vehicle id="54" depart="540.00">
        <route edges="edge-11-8 edge-8-4 edge-4-5 edge-5-2"/>
    </vehicle>
    <vehicle id="55" depart="550.00">
        <route edges="edge-11-8 edge-8-4 edge-4-5 edge-5-2"/>
    </vehicle>
    <vehicle id="56" depart="560.00">
        <route edges="edge-11-8 edge-8-4 edge-4-5 edge-5-2"/>
    </vehicle>
    <vehicle id="57" depart="570.00">
        <route edges="edge-11-8 edge-8-4 edge-4-5 edge-5-2"/>
    </vehicle>
    <vehicle id="58" depart="580.00">
        <route edges="edge-11-8 edge-8-4 edge-4-5 edge-5-2"/>
    </vehicle>
    <vehicle id="59" depart="590.00">
        <route edges="edge-11-8 edge-8-4 edge-4-5 edge-5-2"/>
    </vehicle>
    <vehicle id="60" depart="600.00">
        <route edges="edge-11-8 edge-8-4 edge-4-5 edge-5-2"/>
    </vehicle>
    <vehicle id="61" depart="610.00">
        <route edges="edge-11-8 edge-8-4 edge-4-5 edge-5-2"/>
    </vehicle>
    <vehicle id="62" depart="620.00">
        <route edges="edge-11-8 edge-8-4 edge-4-5 edge-5-2"/>
    </vehicle>
    <vehicle id="63" depart="630.00">
        <route edges="edge-11-8 edge-8-4 edge-4-5 edge-5-2"/>
    </vehicle>
    <vehicle id="64" depart="640.00">
        <route edges="edge-11-8 edge-8-4 edge-4-5 edge-5-2"/>
    </vehicle>
    <vehicle id="65" depart="650.00">
        <route edges="edge-11-8 edge-8-4 edge-4-5 edge-5-2"/>
    </vehicle>
    <vehicle id="66" depart="660.00">
        <route edges="edge-11-8 edge-8-4 edge-4-5 edge-5-2"/>
    </vehicle>
    <vehicle id="67" depart="670.00">
        <route edges="edge-11-8 edge-8-4 edge-4-5 edge-5-2"/>
    </vehicle>
    <vehicle id="68" depart="680.00">
        <route edges="edge-11-8 edge-8-4 edge-4-5 edge-5-2"/>
    </vehicle>
    <vehicle id="69" depart="690.00">
        <route edges="edge-11-8 edge-8-4 edge-4-5 edge-5-2"/>
    </vehicle>
    <vehicle id="70" depart="700.00">
        <route edges="edge-11-8 edge-8-4 edge-4-5 edge-5-2"/>
    </vehicle>
    <vehicle id="71" depart="710.00">
        <route edges="edge-11-8 edge-8-4 edge-4-5 edge-5-2"/>
    </vehicle>
    <vehicle id="72" depart="720.00">
        <route edges="edge-11-8 edge-8-4 edge-4-5 edge-5-2"/>
    </vehicle>
    <vehicle id="73" depart="730.00">
        <route edges="edge-11-8 edge-8-4 edge-4-5 edge-5-2"/>
    </vehicle>
    <vehicle id="74" depart="740.00">
        <route edges="edge-11-8 edge-8-4 edge-4-5 edge-5-2"/>
    </vehicle>
    <vehicle id="75" depart="750.00">
        <route edges="edge-11-8 edge-8-4 edge-4-5 edge-5-2"/>
    </vehicle>
    <vehicle id="76" depart="760.00">
        <route edges="edge-11-8 edge-8-4 edge-4-5 edge-5-2"/>
    </vehicle>
    <vehicle id="77" depart="770.00">
        <route edges="edge-11-8 edge-8-4 edge-4-5 edge-5-2"/>
    </vehicle>
    <vehicle id="78" depart="780.00">
        <route edges="edge-11-8 edge-8-4 edge-4-5 edge-5-2"/>
    </vehicle>
    <vehicle id="79" depart="790.00">
        <route edges="edge-11-8 edge-8-4 edge-4-5 edge-5-2"/>
    </vehicle>
    <vehicle id="80" depart="800.00">
        <route edges="edge-11-8 edge-8-4 edge-4-5 edge-5-2"/>
    </vehicle>
    <vehicle id="81" depart="810.00">
        <route edges="edge-11-8 edge-8-4 edge-4-5 edge-5-2"/>
    </vehicle>
    <vehicle id="82" depart="820.00">
        <route edges="edge-11-8 edge-8-4 edge-4-5 edge-5-2"/>
    </vehicle>
    <vehicle id="83" depart="830.00">
        <route edges="edge-11-8 edge-8-4 edge-4-5 edge-5-2"/>
    </vehicle>
    <vehicle id="84" depart="840.00">
        <route edges="edge-11-8 edge-8-4 edge-4-5 edge-5-2"/>
    </vehicle>
    <vehicle id="85" depart="850.00">
        <route edges="edge-11-8 edge-8-4 edge-4-5 edge-5-2"/>
    </vehicle>
    <vehicle id="86" depart="860.00">
        <route edges="edge-11-8 edge-8-4 edge-4-5 edge-5-2"/>
    </vehicle>
    <vehicle id="87" depart="870.00">
        <route edges="edge-11-8 edge-8-4 edge-4-5 edge-5-2"/>
    </vehicle>
    <vehicle id="88" depart="880.00">
        <route edges="edge-11-8 edge-8-4 edge-4-5 edge-5-2"/>
    </vehicle>
    <vehicle id="89" depart="890.00">
        <route edges="edge-11-8 edge-8-4 edge-4-5 edge-5-2"/>
    </vehicle>
    <vehicle id="90" depart="900.00">
        <route edges="edge-11-8 edge-8-4 edge-4-5 edge-5-2"/>
    </vehicle>
    <vehicle id="91" depart="910.00">
        <route edges="edge-11-8 edge-8-4 edge-4-5 edge-5-2"/>
    </vehicle>
    <vehicle id="92" depart="920.00">
        <route edges="edge-11-8 edge-8-4 edge-4-5 edge-5-2"/>
    </vehicle>
    <vehicle id="93" depart="930.00">
        <route edges="edge-11-8 edge-8-4 edge-4-5 edge-5-2"/>
    </vehicle>
    <vehicle id="94" depart="940.00">
        <route edges="edge-11-8 edge-8-4 edge-4-5 edge-5-2"/>
    </vehicle>
    <vehicle id="95" depart="950.00">
        <route edges="edge-11-8 edge-8-4 edge-4-5 edge-5-2"/>
    </vehicle>
    <vehicle id="96" depart="960.00">
        <route edges="edge-11-8 edge-8-4 edge-4-5 edge-5-2"/>
    </vehicle>
    <vehicle id="97" depart="970.00">
        <route edges="edge-11-8 edge-8-4 edge-4-5 edge-5-2"/>
    </vehicle>
    <vehicle id="98" depart="980.00">
        <route edges="edge-11-8 edge-8-4 edge-4-5 edge-5-2"/>
    </vehicle>
    <vehicle id="99" depart="990.00">
        <route edges="edge-11-8 edge-8-4 edge-4-5 edge-5-2"/>
    </vehicle>
</routes>
